Program Version,EnergyPlus, Version 8.9.0-eba93e8e1b, YMD=2019.10.24 14:58
! <Version>, Version ID
 Version, 8.9
! <Timesteps per Hour>, #TimeSteps, Minutes per TimeStep {minutes}
 Timesteps per Hour,  1, 60
! <System Convergence Limits>, Minimum System TimeStep {minutes}, Max HVAC Iterations, Minimum Plant Iterations, Maximum Plant Iterations
 System Convergence Limits, 1, 20, 2, 8
! <Simulation Control>, Do Zone Sizing, Do System Sizing, Do Plant Sizing, Do Design Days, Do Weather Simulation, Do HVAC Sizing Simulation
 Simulation Control, Yes, Yes, Yes, No, Yes, No
! <Output Reporting Tolerances>, Tolerance for Time Heating Setpoint Not Met, Tolerance for Zone Cooling Setpoint Not Met Time
 Output Reporting Tolerances, 0.200, 0.200, 
! <Site:GroundTemperature:BuildingSurface>,Jan{C},Feb{C},Mar{C},Apr{C},May{C},Jun{C},Jul{C},Aug{C},Sep{C},Oct{C},Nov{C},Dec{C}
 Site:GroundTemperature:BuildingSurface,  19.53,  19.50,  19.54,  19.60,  20.00,  21.64,  22.23,  22.38,  21.45,  20.12,  19.80,  19.63
! <Site:GroundTemperature:FCfactorMethod>,Jan{C},Feb{C},Mar{C},Apr{C},May{C},Jun{C},Jul{C},Aug{C},Sep{C},Oct{C},Nov{C},Dec{C}
 Site:GroundTemperature:FCfactorMethod,   2.54,   1.49,   3.34,   6.25,  13.83,  19.69,  23.64,  24.84,  22.79,  18.25,  12.17,   6.53
! <Site:GroundTemperature:Shallow>,Jan{C},Feb{C},Mar{C},Apr{C},May{C},Jun{C},Jul{C},Aug{C},Sep{C},Oct{C},Nov{C},Dec{C}
 Site:GroundTemperature:Shallow,  13.00,  13.00,  13.00,  13.00,  13.00,  13.00,  13.00,  13.00,  13.00,  13.00,  13.00,  13.00
! <Site:GroundTemperature:Deep>,Jan{C},Feb{C},Mar{C},Apr{C},May{C},Jun{C},Jul{C},Aug{C},Sep{C},Oct{C},Nov{C},Dec{C}
 Site:GroundTemperature:Deep,  16.00,  16.00,  16.00,  16.00,  16.00,  16.00,  16.00,  16.00,  16.00,  16.00,  16.00,  16.00
! <Site:GroundReflectance>,Jan{dimensionless},Feb{dimensionless},Mar{dimensionless},Apr{dimensionless},May{dimensionless},Jun{dimensionless},Jul{dimensionless},Aug{dimensionless},Sep{dimensionless},Oct{dimensionless},Nov{dimensionless},Dec{dimensionless}
 Site:GroundReflectance,  0.20,  0.20,  0.20,  0.20,  0.20,  0.20,  0.20,  0.20,  0.20,  0.20,  0.20,  0.20
! <Site:GroundReflectance:SnowModifier>, Normal, Daylighting {dimensionless}
 Site:GroundReflectance:SnowModifier,   1.000,   1.000
! <Site:GroundReflectance:Snow>,Jan{dimensionless},Feb{dimensionless},Mar{dimensionless},Apr{dimensionless},May{dimensionless},Jun{dimensionless},Jul{dimensionless},Aug{dimensionless},Sep{dimensionless},Oct{dimensionless},Nov{dimensionless},Dec{dimensionless}
 Site:GroundReflectance:Snow,  0.20,  0.20,  0.20,  0.20,  0.20,  0.20,  0.20,  0.20,  0.20,  0.20,  0.20,  0.20
! <Site:GroundReflectance:Snow:Daylighting>,Jan{dimensionless},Feb{dimensionless},Mar{dimensionless},Apr{dimensionless},May{dimensionless},Jun{dimensionless},Jul{dimensionless},Aug{dimensionless},Sep{dimensionless},Oct{dimensionless},Nov{dimensionless},Dec{dimensionless}
 Site:GroundReflectance:Snow:Daylighting,  0.20,  0.20,  0.20,  0.20,  0.20,  0.20,  0.20,  0.20,  0.20,  0.20,  0.20,  0.20
! <Environment:Weather Station>,Wind Sensor Height Above Ground {m},Wind Speed Profile Exponent {},Wind Speed Profile Boundary Layer Thickness {m},Air Temperature Sensor Height Above Ground {m},Wind Speed Modifier Coefficient-Internal,Temperature Modifier Coefficient-Internal
Environment:Weather Station,10.000,0.140,270.000,1.500,1.586,9.750E-003
! <Site:Location>, Location Name, Latitude {N+/S- Deg}, Longitude {E+/W- Deg},  Time Zone Number {GMT+/-}, Elevation {m},  Standard Pressure at Elevation {Pa}, Standard RhoAir at Elevation
Site:Location,Baltimore Blt Washngtn IntL MD USA TMY3 WMO#=724060,39.17,-76.68,-5.00,45.00,100786,1.1979
! <Building Information>, Building Name,North Axis {deg},Terrain,  Loads Convergence Tolerance Value,Temperature Convergence Tolerance Value,  Solar Distribution,Maximum Number of Warmup Days,Minimum Number of Warmup Days
 Building Information,90.1-2010-LargeOffice-ASHRAE 169-2006-4A created: 2018-04-25 10:22:18 -0600,0.000,City,4.00000E-002,0.20000,FullInteriorAndExterior,25,6
! <Inside Convection Algorithm>, Algorithm {Simple | TARP | CeilingDiffuser | AdaptiveConvectionAlgorithm}
Inside Convection Algorithm,TARP
! <Outside Convection Algorithm>, Algorithm {SimpleCombined | TARP | MoWitt | DOE-2 | AdaptiveConvectionAlgorithm}
Outside Convection Algorithm,TARP
! <Sky Radiance Distribution>, Value {Anisotropic}
Sky Radiance Distribution,Anisotropic
! <Zone Air Solution Algorithm>, Value {ThirdOrderBackwardDifference | AnalyticalSolution | EulerMethod}
 Zone Air Solution Algorithm, ThirdOrderBackwardDifference
! <Zone Air Carbon Dioxide Balance Simulation>, Simulation {Yes/No}, Carbon Dioxide Concentration
 Zone Air Carbon Dioxide Balance Simulation, No,N/A
! <Zone Air Generic Contaminant Balance Simulation>, Simulation {Yes/No}, Generic Contaminant Concentration
 Zone Air Generic Contaminant Balance Simulation, No,N/A
! <Zone Air Mass Flow Balance Simulation>, Enforce Mass Balance, Adjust Zone Mixing, Adjust Zone Infiltration {AddInfiltration | AdjustInfiltration | None}, Infiltration Zones {MixingSourceZonesOnly | AllZones}
 Zone Air Mass Flow Balance Simulation, No,N/A,N/A,N/A
! <HVACSystemRootFindingAlgorithm>, Value {RegulaFalsi | Bisection | BisectionThenRegulaFalsi | RegulaFalsiThenBisection}
 HVACSystemRootFindingAlgorithm, RegulaFalsi
! <Environment:Site Atmospheric Variation>,Wind Speed Profile Exponent {},Wind Speed Profile Boundary Layer Thickness {m},Air Temperature Gradient Coefficient {K/m}
Environment:Site Atmospheric Variation,0.330,460.000,6.500000E-003
! <Surface Geometry>,Starting Corner,Vertex Input Direction,Coordinate System,Daylight Reference Point Coordinate System,Rectangular (Simple) Surface Coordinate System
 Surface Geometry,UpperLeftCorner,Counterclockwise,RelativeCoordinateSystem,RelativeCoordinateSystem,RelativeToZoneOrigin
! <Surface Heat Transfer Algorithm>, Value {CTF - ConductionTransferFunction | EMPD - MoisturePenetrationDepthConductionTransferFunction | CondFD - ConductionFiniteDifference | HAMT - CombinedHeatAndMoistureFiniteElement} - Description,Inside Surface Max Temperature Limit{C}, Surface Convection Coefficient Lower Limit {W/m2-K}, Surface Convection Coefficient Upper Limit {W/m2-K}
Surface Heat Transfer Algorithm, CTF - ConductionTransferFunction,200,0.10,1000.0
! <Shading Summary>, Number of Fixed Detached Shades, Number of Building Detached Shades, Number of Attached Shades
 Shading Summary,0,0,0
! <Zone Summary>, Number of Zones, Number of Zone Surfaces, Number of SubSurfaces
 Zone Summary,23,201,12
! <Zone Information>,Zone Name,North Axis {deg},Origin X-Coordinate {m},Origin Y-Coordinate {m},Origin Z-Coordinate {m},Centroid X-Coordinate {m},Centroid Y-Coordinate {m},Centroid Z-Coordinate {m},Type,Zone Multiplier,Zone List Multiplier,Minimum X {m},Maximum X {m},Minimum Y {m},Maximum Y {m},Minimum Z {m},Maximum Z {m},Ceiling Height {m},Volume {m3},Zone Inside Convection Algorithm {Simple-Detailed-CeilingDiffuser-TrombeWall},Zone Outside Convection Algorithm {Simple-Detailed-Tarp-MoWitt-DOE-2-BLAST}, Floor Area {m2},Exterior Gross Wall Area {m2},Exterior Net Wall Area {m2},Exterior Window Area {m2}, Number of Surfaces, Number of SubSurfaces, Number of Shading SubSurfaces,  Part of Total Building Area
 Zone Information, BASEMENT ZN,0.0,16.08,0.00,-2.44,44.59,24.37,-1.22,1,1,1,16.08,73.11,0.00,48.74,-2.44,0.00,2.44,6779.02,TARP,TARP,2779.43,0.00,0.00,0.00,9,0,0,Yes
 Zone Information, CORE_BOTTOM ZN,0.0,5.49,4.57,0.00,37.01,24.37,1.37,1,1,1,5.49,68.53,4.57,44.17,0.00,2.74,2.74,6849.35,TARP,TARP,2496.12,0.00,0.00,0.00,7,0,0,Yes
 Zone Information, CORE_MID ZN,0.0,5.49,4.57,19.82,37.01,24.37,21.19,1,10,1,5.49,68.53,4.57,44.17,19.82,22.56,2.74,6849.35,TARP,TARP,2496.12,0.00,0.00,0.00,6,0,0,Yes
 Zone Information, CORE_TOP ZN,0.0,5.49,4.57,43.60,37.01,24.37,44.97,1,1,1,5.49,68.53,4.57,44.17,43.60,46.34,2.74,6849.35,TARP,TARP,2496.12,0.00,0.00,0.00,6,0,0,Yes
 Zone Information, DATACENTER_BASEMENT_ZN_6 ZN,0.0,0.00,0.00,-2.44,8.04,24.37,-1.22,1,1,1,0.00,16.08,0.00,48.74,-2.44,0.00,2.44,1911.37,TARP,TARP,783.68,0.00,0.00,0.00,10,0,0,Yes
 Zone Information, DATACENTER_BOT_ZN_6 ZN,0.0,4.57,4.57,0.00,5.03,24.37,1.37,1,1,1,4.57,5.49,4.57,44.17,0.00,2.74,2.74,99.34,TARP,TARP,36.20,0.00,0.00,0.00,6,0,0,Yes
 Zone Information, DATACENTER_MID_ZN_6 ZN,0.0,4.57,4.57,19.82,5.03,24.37,21.19,1,10,1,4.57,5.49,4.57,44.17,19.82,22.56,2.74,99.34,TARP,TARP,36.20,0.00,0.00,0.00,6,0,0,Yes
 Zone Information, DATACENTER_TOP_ZN_6 ZN,0.0,4.57,4.57,43.60,5.03,24.37,44.97,1,1,1,4.57,5.49,4.57,44.17,43.60,46.34,2.74,99.34,TARP,TARP,36.20,0.00,0.00,0.00,6,0,0,Yes
 Zone Information, GROUNDFLOOR_PLENUM ZN,0.0,0.00,0.00,2.74,36.55,24.37,3.35,1,1,1,0.00,73.11,0.00,48.74,2.74,3.96,1.22,4344.14,TARP,TARP,3563.11,297.11,297.11,0.00,11,0,0,No
 Zone Information, MIDFLOOR_PLENUM ZN,0.0,0.00,0.00,22.56,36.55,24.37,23.17,1,10,1,0.00,73.11,0.00,48.74,22.56,23.78,1.22,4344.14,TARP,TARP,3563.11,297.11,297.11,0.00,11,0,0,No
 Zone Information, PERIMETER_BOT_ZN_1 ZN,0.0,0.00,0.00,0.00,36.55,2.20,1.37,1,1,1,0.00,73.11,0.00,4.57,0.00,2.74,2.74,860.02,TARP,TARP,313.42,200.61,84.71,115.90,8,1,0,Yes
 Zone Information, PERIMETER_BOT_ZN_2 ZN,0.0,68.53,0.00,0.00,70.95,24.37,1.37,1,1,1,68.53,73.11,0.00,48.74,0.00,2.74,2.74,554.22,TARP,TARP,201.98,133.74,56.47,77.26,6,1,0,Yes
 Zone Information, PERIMETER_BOT_ZN_3 ZN,0.0,0.00,44.17,0.00,36.55,46.54,1.37,1,1,1,0.00,73.11,44.17,48.74,0.00,2.74,2.74,860.00,TARP,TARP,313.41,200.61,84.71,115.90,8,1,0,Yes
 Zone Information, PERIMETER_BOT_ZN_4 ZN,0.0,0.00,0.00,0.00,2.16,24.37,1.37,1,1,1,0.00,4.57,0.00,48.74,0.00,2.74,2.74,554.22,TARP,TARP,201.98,133.74,56.47,77.26,6,1,0,Yes
 Zone Information, PERIMETER_MID_ZN_1 ZN,0.0,0.00,0.00,19.82,36.55,2.20,21.19,1,10,1,0.00,73.11,0.00,4.57,19.82,22.56,2.74,860.02,TARP,TARP,313.42,200.61,84.71,115.90,7,1,0,Yes
 Zone Information, PERIMETER_MID_ZN_2 ZN,0.0,68.53,0.00,19.82,70.95,24.37,21.19,1,10,1,68.53,73.11,0.00,48.74,19.82,22.56,2.74,554.22,TARP,TARP,201.98,133.74,56.47,77.26,6,1,0,Yes
 Zone Information, PERIMETER_MID_ZN_3 ZN,0.0,0.00,44.17,19.82,36.55,46.54,21.19,1,10,1,0.00,73.11,44.17,48.74,19.82,22.56,2.74,860.00,TARP,TARP,313.41,200.61,84.71,115.90,7,1,0,Yes
 Zone Information, PERIMETER_MID_ZN_4 ZN,0.0,0.00,0.00,19.82,2.16,24.37,21.19,1,10,1,0.00,4.57,0.00,48.74,19.82,22.56,2.74,554.22,TARP,TARP,201.98,133.74,56.47,77.26,6,1,0,Yes
 Zone Information, PERIMETER_TOP_ZN_1 ZN,0.0,-7.22E-016,0.00,43.60,36.55,2.20,44.97,1,1,1,-7.22E-016,73.11,0.00,4.57,43.60,46.34,2.74,860.02,TARP,TARP,313.42,200.61,84.71,115.90,7,1,0,Yes
 Zone Information, PERIMETER_TOP_ZN_2 ZN,0.0,68.53,0.00,43.60,70.95,24.37,44.97,1,1,1,68.53,73.11,0.00,48.74,43.60,46.34,2.74,554.22,TARP,TARP,201.98,133.74,56.47,77.26,6,1,0,Yes
 Zone Information, PERIMETER_TOP_ZN_3 ZN,0.0,-7.22E-016,44.17,43.60,36.55,46.54,44.97,1,1,1,-7.22E-016,73.11,44.17,48.74,43.60,46.34,2.74,860.00,TARP,TARP,313.41,200.61,84.71,115.90,7,1,0,Yes
 Zone Information, PERIMETER_TOP_ZN_4 ZN,0.0,-7.22E-016,0.00,43.60,2.16,24.37,44.97,1,1,1,-7.22E-016,4.57,0.00,48.74,43.60,46.34,2.74,554.22,TARP,TARP,201.98,133.74,56.47,77.26,6,1,0,Yes
 Zone Information, TOPFLOOR_PLENUM ZN,0.0,-7.22E-016,0.00,46.34,36.55,24.37,46.95,1,1,1,-7.22E-016,73.11,0.00,48.74,46.34,47.56,1.22,4344.14,TARP,TARP,3563.11,297.11,297.11,0.00,11,0,0,No
! <Zone Internal Gains Nominal>,Zone Name, Floor Area {m2},# Occupants,Area per Occupant {m2/person},Occupant per Area {person/m2},Interior Lighting {W/m2},Electric Load {W/m2},Gas Load {W/m2},Other Load {W/m2},Hot Water Eq {W/m2},Steam Equipment {W/m2},Sum Loads per Area {W/m2},Outdoor Controlled Baseboard Heat
 Zone Internal Gains Nominal, BASEMENT ZN,2779.43,149.6,18.581,5.382E-002,9.688,8.070,0.000,0.000,0.000,0.000,17.758,No
 Zone Internal Gains Nominal, CORE_BOTTOM ZN,2496.12,134.3,18.581,5.382E-002,9.688,8.070,0.000,0.000,0.000,0.000,17.758,No
 Zone Internal Gains Nominal, CORE_MID ZN,2496.12,134.3,18.581,5.382E-002,9.688,8.070,0.000,0.000,0.000,0.000,17.758,No
 Zone Internal Gains Nominal, CORE_TOP ZN,2496.12,134.3,18.581,5.382E-002,9.688,8.070,0.000,0.000,0.000,0.000,17.758,No
 Zone Internal Gains Nominal, DATACENTER_BASEMENT_ZN_6 ZN,783.68,0.0,N/A,0.000,9.688,484.376,0.000,0.000,0.000,0.000,494.063,No
 Zone Internal Gains Nominal, DATACENTER_BOT_ZN_6 ZN,36.20,0.0,N/A,0.000,9.688,215.278,0.000,0.000,0.000,0.000,224.966,No
 Zone Internal Gains Nominal, DATACENTER_MID_ZN_6 ZN,36.20,0.0,N/A,0.000,9.688,215.278,0.000,0.000,0.000,0.000,224.966,No
 Zone Internal Gains Nominal, DATACENTER_TOP_ZN_6 ZN,36.20,0.0,N/A,0.000,9.688,215.278,0.000,0.000,0.000,0.000,224.966,No
 Zone Internal Gains Nominal, GROUNDFLOOR_PLENUM ZN,3563.11,0.0,N/A,0.000,0.000,0.000,0.000,0.000,0.000,0.000,0.000,No
 Zone Internal Gains Nominal, MIDFLOOR_PLENUM ZN,3563.11,0.0,N/A,0.000,0.000,0.000,0.000,0.000,0.000,0.000,0.000,No
 Zone Internal Gains Nominal, PERIMETER_BOT_ZN_1 ZN,313.42,16.9,18.581,5.382E-002,9.688,8.070,0.000,0.000,0.000,0.000,17.758,No
 Zone Internal Gains Nominal, PERIMETER_BOT_ZN_2 ZN,201.98,10.9,18.581,5.382E-002,9.688,8.070,0.000,0.000,0.000,0.000,17.758,No
 Zone Internal Gains Nominal, PERIMETER_BOT_ZN_3 ZN,313.41,16.9,18.581,5.382E-002,9.688,8.070,0.000,0.000,0.000,0.000,17.758,No
 Zone Internal Gains Nominal, PERIMETER_BOT_ZN_4 ZN,201.98,10.9,18.581,5.382E-002,9.688,8.070,0.000,0.000,0.000,0.000,17.758,No
 Zone Internal Gains Nominal, PERIMETER_MID_ZN_1 ZN,313.42,16.9,18.581,5.382E-002,9.688,8.070,0.000,0.000,0.000,0.000,17.758,No
 Zone Internal Gains Nominal, PERIMETER_MID_ZN_2 ZN,201.98,10.9,18.581,5.382E-002,9.688,8.070,0.000,0.000,0.000,0.000,17.758,No
 Zone Internal Gains Nominal, PERIMETER_MID_ZN_3 ZN,313.41,16.9,18.581,5.382E-002,9.688,8.070,0.000,0.000,0.000,0.000,17.758,No
 Zone Internal Gains Nominal, PERIMETER_MID_ZN_4 ZN,201.98,10.9,18.581,5.382E-002,9.688,8.070,0.000,0.000,0.000,0.000,17.758,No
 Zone Internal Gains Nominal, PERIMETER_TOP_ZN_1 ZN,313.42,16.9,18.581,5.382E-002,9.688,8.070,0.000,0.000,0.000,0.000,17.758,No
 Zone Internal Gains Nominal, PERIMETER_TOP_ZN_2 ZN,201.98,10.9,18.581,5.382E-002,9.688,8.070,0.000,0.000,0.000,0.000,17.758,No
 Zone Internal Gains Nominal, PERIMETER_TOP_ZN_3 ZN,313.41,16.9,18.581,5.382E-002,9.688,8.070,0.000,0.000,0.000,0.000,17.758,No
 Zone Internal Gains Nominal, PERIMETER_TOP_ZN_4 ZN,201.98,10.9,18.581,5.382E-002,9.688,8.070,0.000,0.000,0.000,0.000,17.758,No
 Zone Internal Gains Nominal, TOPFLOOR_PLENUM ZN,3563.11,0.0,N/A,0.000,0.000,0.000,0.000,0.000,0.000,0.000,0.000,No
! <People Internal Gains Nominal>,Name,Schedule Name,Zone Name,Zone Floor Area {m2},# Zone Occupants,Number of People {},People/Floor Area {person/m2},Floor Area per person {m2/person},Fraction Radiant,Fraction Convected,Sensible Fraction Calculation,Activity level,ASHRAE 55 Warnings,Carbon Dioxide Generation Rate,Nominal Minimum Number of People,Nominal Maximum Number of People
 People Internal Gains Nominal, BASEMENT ZN OFFICE WHOLEBUILDING - LG OFFICE PEOPLE,OFFICELARGE BLDG_OCC_SCH,BASEMENT ZN,2779.43,149.6,149.6,5.382E-002,18.581,0.300,0.700,AutoCalculate,OFFICELARGE ACTIVITY_SCH,No,3.8200E-008,0,150
 People Internal Gains Nominal, CORE_BOTTOM ZN OFFICE WHOLEBUILDING - LG OFFICE PEOPLE,OFFICELARGE BLDG_OCC_SCH,CORE_BOTTOM ZN,2496.12,134.3,134.3,5.382E-002,18.581,0.300,0.700,AutoCalculate,OFFICELARGE ACTIVITY_SCH,No,3.8200E-008,0,134
 People Internal Gains Nominal, CORE_MID ZN OFFICE WHOLEBUILDING - LG OFFICE PEOPLE,OFFICELARGE BLDG_OCC_SCH,CORE_MID ZN,2496.12,134.3,134.3,5.382E-002,18.581,0.300,0.700,AutoCalculate,OFFICELARGE ACTIVITY_SCH,No,3.8200E-008,0,134
 People Internal Gains Nominal, CORE_TOP ZN OFFICE WHOLEBUILDING - LG OFFICE PEOPLE,OFFICELARGE BLDG_OCC_SCH,CORE_TOP ZN,2496.12,134.3,134.3,5.382E-002,18.581,0.300,0.700,AutoCalculate,OFFICELARGE ACTIVITY_SCH,No,3.8200E-008,0,134
 People Internal Gains Nominal, PERIMETER_BOT_ZN_1 ZN OFFICE WHOLEBUILDING - LG OFFICE PEOPLE,OFFICELARGE BLDG_OCC_SCH,PERIMETER_BOT_ZN_1 ZN,313.42,16.9,16.9,5.382E-002,18.581,0.300,0.700,AutoCalculate,OFFICELARGE ACTIVITY_SCH,No,3.8200E-008,0,17
 People Internal Gains Nominal, PERIMETER_BOT_ZN_2 ZN OFFICE WHOLEBUILDING - LG OFFICE PEOPLE,OFFICELARGE BLDG_OCC_SCH,PERIMETER_BOT_ZN_2 ZN,201.98,10.9,10.9,5.382E-002,18.581,0.300,0.700,AutoCalculate,OFFICELARGE ACTIVITY_SCH,No,3.8200E-008,0,11
 People Internal Gains Nominal, PERIMETER_BOT_ZN_3 ZN OFFICE WHOLEBUILDING - LG OFFICE PEOPLE,OFFICELARGE BLDG_OCC_SCH,PERIMETER_BOT_ZN_3 ZN,313.41,16.9,16.9,5.382E-002,18.581,0.300,0.700,AutoCalculate,OFFICELARGE ACTIVITY_SCH,No,3.8200E-008,0,17
 People Internal Gains Nominal, PERIMETER_BOT_ZN_4 ZN OFFICE WHOLEBUILDING - LG OFFICE PEOPLE,OFFICELARGE BLDG_OCC_SCH,PERIMETER_BOT_ZN_4 ZN,201.98,10.9,10.9,5.382E-002,18.581,0.300,0.700,AutoCalculate,OFFICELARGE ACTIVITY_SCH,No,3.8200E-008,0,11
 People Internal Gains Nominal, PERIMETER_MID_ZN_1 ZN OFFICE WHOLEBUILDING - LG OFFICE PEOPLE,OFFICELARGE BLDG_OCC_SCH,PERIMETER_MID_ZN_1 ZN,313.42,16.9,16.9,5.382E-002,18.581,0.300,0.700,AutoCalculate,OFFICELARGE ACTIVITY_SCH,No,3.8200E-008,0,17
 People Internal Gains Nominal, PERIMETER_MID_ZN_2 ZN OFFICE WHOLEBUILDING - LG OFFICE PEOPLE,OFFICELARGE BLDG_OCC_SCH,PERIMETER_MID_ZN_2 ZN,201.98,10.9,10.9,5.382E-002,18.581,0.300,0.700,AutoCalculate,OFFICELARGE ACTIVITY_SCH,No,3.8200E-008,0,11
 People Internal Gains Nominal, PERIMETER_MID_ZN_3 ZN OFFICE WHOLEBUILDING - LG OFFICE PEOPLE,OFFICELARGE BLDG_OCC_SCH,PERIMETER_MID_ZN_3 ZN,313.41,16.9,16.9,5.382E-002,18.581,0.300,0.700,AutoCalculate,OFFICELARGE ACTIVITY_SCH,No,3.8200E-008,0,17
 People Internal Gains Nominal, PERIMETER_MID_ZN_4 ZN OFFICE WHOLEBUILDING - LG OFFICE PEOPLE,OFFICELARGE BLDG_OCC_SCH,PERIMETER_MID_ZN_4 ZN,201.98,10.9,10.9,5.382E-002,18.581,0.300,0.700,AutoCalculate,OFFICELARGE ACTIVITY_SCH,No,3.8200E-008,0,11
 People Internal Gains Nominal, PERIMETER_TOP_ZN_1 ZN OFFICE WHOLEBUILDING - LG OFFICE PEOPLE,OFFICELARGE BLDG_OCC_SCH,PERIMETER_TOP_ZN_1 ZN,313.42,16.9,16.9,5.382E-002,18.581,0.300,0.700,AutoCalculate,OFFICELARGE ACTIVITY_SCH,No,3.8200E-008,0,17
 People Internal Gains Nominal, PERIMETER_TOP_ZN_2 ZN OFFICE WHOLEBUILDING - LG OFFICE PEOPLE,OFFICELARGE BLDG_OCC_SCH,PERIMETER_TOP_ZN_2 ZN,201.98,10.9,10.9,5.382E-002,18.581,0.300,0.700,AutoCalculate,OFFICELARGE ACTIVITY_SCH,No,3.8200E-008,0,11
 People Internal Gains Nominal, PERIMETER_TOP_ZN_3 ZN OFFICE WHOLEBUILDING - LG OFFICE PEOPLE,OFFICELARGE BLDG_OCC_SCH,PERIMETER_TOP_ZN_3 ZN,313.41,16.9,16.9,5.382E-002,18.581,0.300,0.700,AutoCalculate,OFFICELARGE ACTIVITY_SCH,No,3.8200E-008,0,17
 People Internal Gains Nominal, PERIMETER_TOP_ZN_4 ZN OFFICE WHOLEBUILDING - LG OFFICE PEOPLE,OFFICELARGE BLDG_OCC_SCH,PERIMETER_TOP_ZN_4 ZN,201.98,10.9,10.9,5.382E-002,18.581,0.300,0.700,AutoCalculate,OFFICELARGE ACTIVITY_SCH,No,3.8200E-008,0,11
! <Lights Internal Gains Nominal>,Name,Schedule Name,Zone Name,Zone Floor Area {m2},# Zone Occupants,Lighting Level {W},Lights/Floor Area {W/m2},Lights per person {W/person},Fraction Return Air,Fraction Radiant,Fraction Short Wave,Fraction Convected,Fraction Replaceable,End-Use Category,Nominal Minimum Lighting Level {W},Nominal Maximum Lighting Level {W}
 Lights Internal Gains Nominal, DATACENTER_BOT_ZN_6 ZN OFFICE OFFICELARGE DATA CENTER LIGHTS,OFFICELARGE BLDG_LIGHT_SCH,DATACENTER_BOT_ZN_6 ZN,36.20,0.0,350.715,9.688,N/A,0.000,0.700,0.200,0.100,1.000,General,0.000,350.715
 Lights Internal Gains Nominal, DATACENTER_MID_ZN_6 ZN OFFICE OFFICELARGE DATA CENTER LIGHTS,OFFICELARGE BLDG_LIGHT_SCH,DATACENTER_MID_ZN_6 ZN,36.20,0.0,350.715,9.688,N/A,0.000,0.700,0.200,0.100,1.000,General,0.000,350.715
 Lights Internal Gains Nominal, DATACENTER_TOP_ZN_6 ZN OFFICE OFFICELARGE DATA CENTER LIGHTS,OFFICELARGE BLDG_LIGHT_SCH,DATACENTER_TOP_ZN_6 ZN,36.20,0.0,350.715,9.688,N/A,0.000,0.700,0.200,0.100,1.000,General,0.000,350.715
 Lights Internal Gains Nominal, DATACENTER_BASEMENT_ZN_6 ZN OFFICE OFFICELARGE MAIN DATA CENTER LIGHTS,OFFICELARGE BLDG_LIGHT_SCH,DATACENTER_BASEMENT_ZN_6 ZN,783.68,0.0,7591.909,9.688,N/A,0.000,0.700,0.200,0.100,1.000,General,0.000,7591.909
 Lights Internal Gains Nominal, BASEMENT ZN OFFICE WHOLEBUILDING - LG OFFICE LIGHTS,OFFICELARGE BLDG_LIGHT_SCH,BASEMENT ZN,2779.43,149.6,26925.749,9.688,180.000,0.000,0.700,0.200,0.100,1.000,General,0.000,26925.749
 Lights Internal Gains Nominal, CORE_BOTTOM ZN OFFICE WHOLEBUILDING - LG OFFICE LIGHTS,OFFICELARGE BLDG_LIGHT_SCH,CORE_BOTTOM ZN,2496.12,134.3,24181.215,9.688,180.000,0.000,0.700,0.200,0.100,1.000,General,0.000,24181.215
 Lights Internal Gains Nominal, CORE_MID ZN OFFICE WHOLEBUILDING - LG OFFICE LIGHTS,OFFICELARGE BLDG_LIGHT_SCH,CORE_MID ZN,2496.12,134.3,24181.215,9.688,180.000,0.000,0.700,0.200,0.100,1.000,General,0.000,24181.215
 Lights Internal Gains Nominal, CORE_TOP ZN OFFICE WHOLEBUILDING - LG OFFICE LIGHTS,OFFICELARGE BLDG_LIGHT_SCH,CORE_TOP ZN,2496.12,134.3,24181.215,9.688,180.000,0.000,0.700,0.200,0.100,1.000,General,0.000,24181.215
 Lights Internal Gains Nominal, PERIMETER_BOT_ZN_1 ZN OFFICE WHOLEBUILDING - LG OFFICE LIGHTS,OFFICELARGE BLDG_LIGHT_SCH,PERIMETER_BOT_ZN_1 ZN,313.42,16.9,3036.259,9.688,180.000,0.000,0.700,0.200,0.100,1.000,General,0.000,3036.259
 Lights Internal Gains Nominal, PERIMETER_BOT_ZN_2 ZN OFFICE WHOLEBUILDING - LG OFFICE LIGHTS,OFFICELARGE BLDG_LIGHT_SCH,PERIMETER_BOT_ZN_2 ZN,201.98,10.9,1956.638,9.688,180.000,0.000,0.700,0.200,0.100,1.000,General,0.000,1956.638
 Lights Internal Gains Nominal, PERIMETER_BOT_ZN_3 ZN OFFICE WHOLEBUILDING - LG OFFICE LIGHTS,OFFICELARGE BLDG_LIGHT_SCH,PERIMETER_BOT_ZN_3 ZN,313.41,16.9,3036.193,9.688,180.000,0.000,0.700,0.200,0.100,1.000,General,0.000,3036.193
 Lights Internal Gains Nominal, PERIMETER_BOT_ZN_4 ZN OFFICE WHOLEBUILDING - LG OFFICE LIGHTS,OFFICELARGE BLDG_LIGHT_SCH,PERIMETER_BOT_ZN_4 ZN,201.98,10.9,1956.638,9.688,180.000,0.000,0.700,0.200,0.100,1.000,General,0.000,1956.638
 Lights Internal Gains Nominal, PERIMETER_MID_ZN_1 ZN OFFICE WHOLEBUILDING - LG OFFICE LIGHTS,OFFICELARGE BLDG_LIGHT_SCH,PERIMETER_MID_ZN_1 ZN,313.42,16.9,3036.259,9.688,180.000,0.000,0.700,0.200,0.100,1.000,General,0.000,3036.259
 Lights Internal Gains Nominal, PERIMETER_MID_ZN_2 ZN OFFICE WHOLEBUILDING - LG OFFICE LIGHTS,OFFICELARGE BLDG_LIGHT_SCH,PERIMETER_MID_ZN_2 ZN,201.98,10.9,1956.638,9.688,180.000,0.000,0.700,0.200,0.100,1.000,General,0.000,1956.638
 Lights Internal Gains Nominal, PERIMETER_MID_ZN_3 ZN OFFICE WHOLEBUILDING - LG OFFICE LIGHTS,OFFICELARGE BLDG_LIGHT_SCH,PERIMETER_MID_ZN_3 ZN,313.41,16.9,3036.193,9.688,180.000,0.000,0.700,0.200,0.100,1.000,General,0.000,3036.193
 Lights Internal Gains Nominal, PERIMETER_MID_ZN_4 ZN OFFICE WHOLEBUILDING - LG OFFICE LIGHTS,OFFICELARGE BLDG_LIGHT_SCH,PERIMETER_MID_ZN_4 ZN,201.98,10.9,1956.638,9.688,180.000,0.000,0.700,0.200,0.100,1.000,General,0.000,1956.638
 Lights Internal Gains Nominal, PERIMETER_TOP_ZN_1 ZN OFFICE WHOLEBUILDING - LG OFFICE LIGHTS,OFFICELARGE BLDG_LIGHT_SCH,PERIMETER_TOP_ZN_1 ZN,313.42,16.9,3036.259,9.688,180.000,0.000,0.700,0.200,0.100,1.000,General,0.000,3036.259
 Lights Internal Gains Nominal, PERIMETER_TOP_ZN_2 ZN OFFICE WHOLEBUILDING - LG OFFICE LIGHTS,OFFICELARGE BLDG_LIGHT_SCH,PERIMETER_TOP_ZN_2 ZN,201.98,10.9,1956.638,9.688,180.000,0.000,0.700,0.200,0.100,1.000,General,0.000,1956.638
 Lights Internal Gains Nominal, PERIMETER_TOP_ZN_3 ZN OFFICE WHOLEBUILDING - LG OFFICE LIGHTS,OFFICELARGE BLDG_LIGHT_SCH,PERIMETER_TOP_ZN_3 ZN,313.41,16.9,3036.193,9.688,180.000,0.000,0.700,0.200,0.100,1.000,General,0.000,3036.193
 Lights Internal Gains Nominal, PERIMETER_TOP_ZN_4 ZN OFFICE WHOLEBUILDING - LG OFFICE LIGHTS,OFFICELARGE BLDG_LIGHT_SCH,PERIMETER_TOP_ZN_4 ZN,201.98,10.9,1956.638,9.688,180.000,0.000,0.700,0.200,0.100,1.000,General,0.000,1956.638
! <ElectricEquipment Internal Gains Nominal>,Name,Schedule Name,Zone Name,Zone Floor Area {m2},# Zone Occupants,Equipment Level {W},Equipment/Floor Area {W/m2},Equipment per person {W/person},Fraction Latent,Fraction Radiant,Fraction Lost,Fraction Convected,End-Use SubCategory,Nominal Minimum Equipment Level {W},Nominal Maximum Equipment Level {W}
 ElectricEquipment Internal Gains Nominal, DATACENTER_BOT_ZN_6 ZN OFFICE OFFICELARGE DATA CENTER ELEC EQUIP,OFFICELARGE ALWAYS_ON,DATACENTER_BOT_ZN_6 ZN,36.20,0.0,7793.661,215.278,N/A,0.000,0.500,0.000,0.500,General,7793.661,7793.661
 ElectricEquipment Internal Gains Nominal, DATACENTER_MID_ZN_6 ZN OFFICE OFFICELARGE DATA CENTER ELEC EQUIP,OFFICELARGE ALWAYS_ON,DATACENTER_MID_ZN_6 ZN,36.20,0.0,7793.661,215.278,N/A,0.000,0.500,0.000,0.500,General,7793.661,7793.661
 ElectricEquipment Internal Gains Nominal, DATACENTER_TOP_ZN_6 ZN OFFICE OFFICELARGE DATA CENTER ELEC EQUIP,OFFICELARGE ALWAYS_ON,DATACENTER_TOP_ZN_6 ZN,36.20,0.0,7793.661,215.278,N/A,0.000,0.500,0.000,0.500,General,7793.661,7793.661
 ElectricEquipment Internal Gains Nominal, DATACENTER_BASEMENT_ZN_6 ZN OFFICE OFFICELARGE MAIN DATA CENTER ELEC EQUIP,OFFICELARGE ALWAYS_ON,DATACENTER_BASEMENT_ZN_6 ZN,783.68,0.0,379595.471,484.376,N/A,0.000,0.500,0.000,0.500,General,379595.471,379595.471
 ElectricEquipment Internal Gains Nominal, BASEMENT ZN OFFICE WHOLEBUILDING - LG OFFICE ELEC EQUIP,OFFICELARGE BLDG_EQUIP_SCH,BASEMENT ZN,2779.43,149.6,22430.180,8.070,149.947,0.000,0.500,0.000,0.500,General,0.000,22430.180
 ElectricEquipment Internal Gains Nominal, CORE_BOTTOM ZN OFFICE WHOLEBUILDING - LG OFFICE ELEC EQUIP,OFFICELARGE BLDG_EQUIP_SCH,CORE_BOTTOM ZN,2496.12,134.3,20143.878,8.070,149.947,0.000,0.500,0.000,0.500,General,0.000,20143.878
 ElectricEquipment Internal Gains Nominal, CORE_MID ZN OFFICE WHOLEBUILDING - LG OFFICE ELEC EQUIP,OFFICELARGE BLDG_EQUIP_SCH,CORE_MID ZN,2496.12,134.3,20143.878,8.070,149.947,0.000,0.500,0.000,0.500,General,0.000,20143.878
 ElectricEquipment Internal Gains Nominal, CORE_TOP ZN OFFICE WHOLEBUILDING - LG OFFICE ELEC EQUIP,OFFICELARGE BLDG_EQUIP_SCH,CORE_TOP ZN,2496.12,134.3,20143.878,8.070,149.947,0.000,0.500,0.000,0.500,General,0.000,20143.878
 ElectricEquipment Internal Gains Nominal, PERIMETER_BOT_ZN_1 ZN OFFICE WHOLEBUILDING - LG OFFICE ELEC EQUIP,OFFICELARGE BLDG_EQUIP_SCH,PERIMETER_BOT_ZN_1 ZN,313.42,16.9,2529.320,8.070,149.947,0.000,0.500,0.000,0.500,General,0.000,2529.320
 ElectricEquipment Internal Gains Nominal, PERIMETER_BOT_ZN_2 ZN OFFICE WHOLEBUILDING - LG OFFICE ELEC EQUIP,OFFICELARGE BLDG_EQUIP_SCH,PERIMETER_BOT_ZN_2 ZN,201.98,10.9,1629.955,8.070,149.947,0.000,0.500,0.000,0.500,General,0.000,1629.955
 ElectricEquipment Internal Gains Nominal, PERIMETER_BOT_ZN_3 ZN OFFICE WHOLEBUILDING - LG OFFICE ELEC EQUIP,OFFICELARGE BLDG_EQUIP_SCH,PERIMETER_BOT_ZN_3 ZN,313.41,16.9,2529.265,8.070,149.947,0.000,0.500,0.000,0.500,General,0.000,2529.265
 ElectricEquipment Internal Gains Nominal, PERIMETER_BOT_ZN_4 ZN OFFICE WHOLEBUILDING - LG OFFICE ELEC EQUIP,OFFICELARGE BLDG_EQUIP_SCH,PERIMETER_BOT_ZN_4 ZN,201.98,10.9,1629.955,8.070,149.947,0.000,0.500,0.000,0.500,General,0.000,1629.955
 ElectricEquipment Internal Gains Nominal, PERIMETER_MID_ZN_1 ZN OFFICE WHOLEBUILDING - LG OFFICE ELEC EQUIP,OFFICELARGE BLDG_EQUIP_SCH,PERIMETER_MID_ZN_1 ZN,313.42,16.9,2529.320,8.070,149.947,0.000,0.500,0.000,0.500,General,0.000,2529.320
 ElectricEquipment Internal Gains Nominal, PERIMETER_MID_ZN_2 ZN OFFICE WHOLEBUILDING - LG OFFICE ELEC EQUIP,OFFICELARGE BLDG_EQUIP_SCH,PERIMETER_MID_ZN_2 ZN,201.98,10.9,1629.955,8.070,149.947,0.000,0.500,0.000,0.500,General,0.000,1629.955
 ElectricEquipment Internal Gains Nominal, PERIMETER_MID_ZN_3 ZN OFFICE WHOLEBUILDING - LG OFFICE ELEC EQUIP,OFFICELARGE BLDG_EQUIP_SCH,PERIMETER_MID_ZN_3 ZN,313.41,16.9,2529.265,8.070,149.947,0.000,0.500,0.000,0.500,General,0.000,2529.265
 ElectricEquipment Internal Gains Nominal, PERIMETER_MID_ZN_4 ZN OFFICE WHOLEBUILDING - LG OFFICE ELEC EQUIP,OFFICELARGE BLDG_EQUIP_SCH,PERIMETER_MID_ZN_4 ZN,201.98,10.9,1629.955,8.070,149.947,0.000,0.500,0.000,0.500,General,0.000,1629.955
 ElectricEquipment Internal Gains Nominal, PERIMETER_TOP_ZN_1 ZN OFFICE WHOLEBUILDING - LG OFFICE ELEC EQUIP,OFFICELARGE BLDG_EQUIP_SCH,PERIMETER_TOP_ZN_1 ZN,313.42,16.9,2529.320,8.070,149.947,0.000,0.500,0.000,0.500,General,0.000,2529.320
 ElectricEquipment Internal Gains Nominal, PERIMETER_TOP_ZN_2 ZN OFFICE WHOLEBUILDING - LG OFFICE ELEC EQUIP,OFFICELARGE BLDG_EQUIP_SCH,PERIMETER_TOP_ZN_2 ZN,201.98,10.9,1629.955,8.070,149.947,0.000,0.500,0.000,0.500,General,0.000,1629.955
 ElectricEquipment Internal Gains Nominal, PERIMETER_TOP_ZN_3 ZN OFFICE WHOLEBUILDING - LG OFFICE ELEC EQUIP,OFFICELARGE BLDG_EQUIP_SCH,PERIMETER_TOP_ZN_3 ZN,313.41,16.9,2529.265,8.070,149.947,0.000,0.500,0.000,0.500,General,0.000,2529.265
 ElectricEquipment Internal Gains Nominal, PERIMETER_TOP_ZN_4 ZN OFFICE WHOLEBUILDING - LG OFFICE ELEC EQUIP,OFFICELARGE BLDG_EQUIP_SCH,PERIMETER_TOP_ZN_4 ZN,201.98,10.9,1629.955,8.070,149.947,0.000,0.500,0.000,0.500,General,0.000,1629.955
! <Shadowing/Sun Position Calculations Annual Simulations>, Calculation Method, Value {days}, Allowable Number Figures in Shadow Overlap {}, Polygon Clipping Algorithm, Sky Diffuse Modeling Algorithm, External Shading Calculation Method, Output External Shading Calculation Results, Disable Self-Shading Within Shading Zone Groups, Disable Self-Shading From Shading Zone Groups to Other Zones
Shadowing/Sun Position Calculations Annual Simulations,AverageOverDaysInFrequency,20,15000,SutherlandHodgman,SimpleSkyDiffuseModeling,InternalCalculation,No,No,No
! <Zone/Window Adjacency Daylighting Counts>, Zone Name, Number of Exterior Windows, Number of Exterior Windows in Adjacent Zones
Zone/Window Adjacency Daylighting Counts, PERIMETER_BOT_ZN_1 ZN,1,0
Zone/Window Adjacency Daylighting Counts, PERIMETER_BOT_ZN_2 ZN,1,0
Zone/Window Adjacency Daylighting Counts, PERIMETER_BOT_ZN_3 ZN,1,0
Zone/Window Adjacency Daylighting Counts, PERIMETER_BOT_ZN_4 ZN,1,0
Zone/Window Adjacency Daylighting Counts, PERIMETER_MID_ZN_1 ZN,1,0
Zone/Window Adjacency Daylighting Counts, PERIMETER_MID_ZN_2 ZN,1,0
Zone/Window Adjacency Daylighting Counts, PERIMETER_MID_ZN_3 ZN,1,0
Zone/Window Adjacency Daylighting Counts, PERIMETER_MID_ZN_4 ZN,1,0
Zone/Window Adjacency Daylighting Counts, PERIMETER_TOP_ZN_1 ZN,1,0
Zone/Window Adjacency Daylighting Counts, PERIMETER_TOP_ZN_2 ZN,1,0
Zone/Window Adjacency Daylighting Counts, PERIMETER_TOP_ZN_3 ZN,1,0
Zone/Window Adjacency Daylighting Counts, PERIMETER_TOP_ZN_4 ZN,1,0
! <Zone/Window Adjacency Daylighting Matrix>, Zone Name, Number of Adjacent Zones with Windows,Adjacent Zone Names - 1st 100 (max)
Zone/Window Adjacency Daylighting Matrix, PERIMETER_BOT_ZN_1 ZN,0
Zone/Window Adjacency Daylighting Matrix, PERIMETER_BOT_ZN_2 ZN,0
Zone/Window Adjacency Daylighting Matrix, PERIMETER_BOT_ZN_3 ZN,0
Zone/Window Adjacency Daylighting Matrix, PERIMETER_BOT_ZN_4 ZN,0
Zone/Window Adjacency Daylighting Matrix, PERIMETER_MID_ZN_1 ZN,0
Zone/Window Adjacency Daylighting Matrix, PERIMETER_MID_ZN_2 ZN,0
Zone/Window Adjacency Daylighting Matrix, PERIMETER_MID_ZN_3 ZN,0
Zone/Window Adjacency Daylighting Matrix, PERIMETER_MID_ZN_4 ZN,0
Zone/Window Adjacency Daylighting Matrix, PERIMETER_TOP_ZN_1 ZN,0
Zone/Window Adjacency Daylighting Matrix, PERIMETER_TOP_ZN_2 ZN,0
Zone/Window Adjacency Daylighting Matrix, PERIMETER_TOP_ZN_3 ZN,0
Zone/Window Adjacency Daylighting Matrix, PERIMETER_TOP_ZN_4 ZN,0
! <Surface View Factor Check Values>,Zone Name,Original Check Value,Calculated Fixed Check Value,Final Check Value,Number of Iterations,Fixed RowSum Convergence,Used RowSum Convergence
Surface View Factor Check Values,BASEMENT ZN,0.569214,9.744539E-004,9.744539E-004,132,10.000000,9.744539E-004
Surface View Factor Check Values,CORE_BOTTOM ZN,8.881784E-016,9.866075E-004,9.866075E-004,107,9.866075E-004,9.866075E-004
Surface View Factor Check Values,CORE_MID ZN,2.664535E-015,9.618545E-004,9.618545E-004,103,9.618545E-004,9.618545E-004
Surface View Factor Check Values,CORE_TOP ZN,2.664535E-015,9.618545E-004,9.618545E-004,103,9.618545E-004,9.618545E-004
Surface View Factor Check Values,DATACENTER_BASEMENT_ZN_6 ZN,0.608219,9.656682E-004,9.656682E-004,72,11.000000,9.656682E-004
Surface View Factor Check Values,DATACENTER_BOT_ZN_6 ZN,2.664535E-015,8.386089E-004,8.386089E-004,12,8.386089E-004,8.386089E-004
Surface View Factor Check Values,DATACENTER_MID_ZN_6 ZN,2.664535E-015,8.386089E-004,8.386089E-004,12,8.386089E-004,8.386089E-004
Surface View Factor Check Values,DATACENTER_TOP_ZN_6 ZN,2.664535E-015,8.386089E-004,8.386089E-004,12,8.386089E-004,8.386089E-004
Surface View Factor Check Values,GROUNDFLOOR_PLENUM ZN,0.000000,9.879635E-004,9.879635E-004,147,9.879635E-004,9.879635E-004
Surface View Factor Check Values,MIDFLOOR_PLENUM ZN,0.000000,9.879635E-004,9.879635E-004,147,9.879635E-004,9.879635E-004
Surface View Factor Check Values,PERIMETER_BOT_ZN_1 ZN,1.776357E-015,8.665464E-004,8.665464E-004,32,8.665464E-004,8.665464E-004
Surface View Factor Check Values,PERIMETER_BOT_ZN_2 ZN,0.000000,8.751229E-004,8.751229E-004,25,8.751229E-004,8.751229E-004
Surface View Factor Check Values,PERIMETER_BOT_ZN_3 ZN,1.776357E-015,9.662270E-004,9.662270E-004,32,9.662270E-004,9.662270E-004
Surface View Factor Check Values,PERIMETER_BOT_ZN_4 ZN,1.776357E-015,8.751229E-004,8.751229E-004,25,8.751229E-004,8.751229E-004
Surface View Factor Check Values,PERIMETER_MID_ZN_1 ZN,0.000000,8.569382E-004,8.569382E-004,31,8.569382E-004,8.569382E-004
Surface View Factor Check Values,PERIMETER_MID_ZN_2 ZN,0.000000,8.751229E-004,8.751229E-004,25,8.751229E-004,8.751229E-004
Surface View Factor Check Values,PERIMETER_MID_ZN_3 ZN,3.552714E-015,9.714567E-004,9.714567E-004,31,9.714567E-004,9.714567E-004
Surface View Factor Check Values,PERIMETER_MID_ZN_4 ZN,0.000000,8.751229E-004,8.751229E-004,25,8.751229E-004,8.751229E-004
Surface View Factor Check Values,PERIMETER_TOP_ZN_1 ZN,1.776357E-015,8.569382E-004,8.569382E-004,31,8.569382E-004,8.569382E-004
Surface View Factor Check Values,PERIMETER_TOP_ZN_2 ZN,0.000000,8.751229E-004,8.751229E-004,25,8.751229E-004,8.751229E-004
Surface View Factor Check Values,PERIMETER_TOP_ZN_3 ZN,3.552714E-015,9.714567E-004,9.714567E-004,31,9.714567E-004,9.714567E-004
Surface View Factor Check Values,PERIMETER_TOP_ZN_4 ZN,0.000000,8.751229E-004,8.751229E-004,25,8.751229E-004,8.751229E-004
Surface View Factor Check Values,TOPFLOOR_PLENUM ZN,0.000000,9.879635E-004,9.879635E-004,147,9.879635E-004,9.879635E-004
! <Water Heater Information>,Type,Name,Volume {m3},Maximum Capacity {W},Standard Rated Recovery Efficiency, Standard Rated Energy Factor
! <ZoneInfiltration Airflow Stats Nominal>,Name,Schedule Name,Zone Name, Zone Floor Area {m2}, # Zone Occupants,Design Volume Flow Rate {m3/s},Volume Flow Rate/Floor Area {m3/s/m2},Volume Flow Rate/Exterior Surface Area {m3/s/m2},ACH - Air Changes per Hour,Equation A - Constant Term Coefficient {},Equation B - Temperature Term Coefficient {1/C},Equation C - Velocity Term Coefficient {s/m}, Equation D - Velocity Squared Term Coefficient {s2/m2}
 ZoneInfiltration Airflow Stats Nominal, GROUNDFLOOR_PLENUM INFILTRATION,ALWAYS ON DISCRETE,GROUNDFLOOR_PLENUM ZN,3563.11,0.0,0.169,4.749E-005,5.696E-004,0.140,0.000,0.000,0.224,0.000
 ZoneInfiltration Airflow Stats Nominal, MIDFLOOR_PLENUM INFILTRATION,ALWAYS ON DISCRETE,MIDFLOOR_PLENUM ZN,3563.11,0.0,0.169,4.749E-005,5.696E-004,0.140,0.000,0.000,0.224,0.000
 ZoneInfiltration Airflow Stats Nominal, PERIMETER_BOT_ZN_1 INFILTRATION,OFFICELARGE INFIL_SCH_PNNL,PERIMETER_BOT_ZN_1 ZN,313.42,16.9,0.114,3.646E-004,5.696E-004,0.478,0.000,0.000,0.224,0.000
 ZoneInfiltration Airflow Stats Nominal, PERIMETER_BOT_ZN_2 INFILTRATION,OFFICELARGE INFIL_SCH_PNNL,PERIMETER_BOT_ZN_2 ZN,201.98,10.9,7.617E-002,3.771E-004,5.696E-004,0.495,0.000,0.000,0.224,0.000
 ZoneInfiltration Airflow Stats Nominal, PERIMETER_BOT_ZN_3 INFILTRATION,OFFICELARGE INFIL_SCH_PNNL,PERIMETER_BOT_ZN_3 ZN,313.41,16.9,0.114,3.646E-004,5.696E-004,0.478,0.000,0.000,0.224,0.000
 ZoneInfiltration Airflow Stats Nominal, PERIMETER_BOT_ZN_4 INFILTRATION,OFFICELARGE INFIL_SCH_PNNL,PERIMETER_BOT_ZN_4 ZN,201.98,10.9,7.617E-002,3.771E-004,5.696E-004,0.495,0.000,0.000,0.224,0.000
 ZoneInfiltration Airflow Stats Nominal, PERIMETER_MID_ZN_1 INFILTRATION,OFFICELARGE INFIL_SCH_PNNL,PERIMETER_MID_ZN_1 ZN,313.42,16.9,0.114,3.646E-004,5.696E-004,0.478,0.000,0.000,0.224,0.000
 ZoneInfiltration Airflow Stats Nominal, PERIMETER_MID_ZN_2 INFILTRATION,OFFICELARGE INFIL_SCH_PNNL,PERIMETER_MID_ZN_2 ZN,201.98,10.9,7.617E-002,3.771E-004,5.696E-004,0.495,0.000,0.000,0.224,0.000
 ZoneInfiltration Airflow Stats Nominal, PERIMETER_MID_ZN_3 INFILTRATION,OFFICELARGE INFIL_SCH_PNNL,PERIMETER_MID_ZN_3 ZN,313.41,16.9,0.114,3.646E-004,5.696E-004,0.478,0.000,0.000,0.224,0.000
 ZoneInfiltration Airflow Stats Nominal, PERIMETER_MID_ZN_4 INFILTRATION,OFFICELARGE INFIL_SCH_PNNL,PERIMETER_MID_ZN_4 ZN,201.98,10.9,7.617E-002,3.771E-004,5.696E-004,0.495,0.000,0.000,0.224,0.000
 ZoneInfiltration Airflow Stats Nominal, PERIMETER_TOP_ZN_1 INFILTRATION,OFFICELARGE INFIL_SCH_PNNL,PERIMETER_TOP_ZN_1 ZN,313.42,16.9,0.114,3.646E-004,5.696E-004,0.478,0.000,0.000,0.224,0.000
 ZoneInfiltration Airflow Stats Nominal, PERIMETER_TOP_ZN_2 INFILTRATION,OFFICELARGE INFIL_SCH_PNNL,PERIMETER_TOP_ZN_2 ZN,201.98,10.9,7.617E-002,3.771E-004,5.696E-004,0.495,0.000,0.000,0.224,0.000
 ZoneInfiltration Airflow Stats Nominal, PERIMETER_TOP_ZN_3 INFILTRATION,OFFICELARGE INFIL_SCH_PNNL,PERIMETER_TOP_ZN_3 ZN,313.41,16.9,0.114,3.646E-004,5.696E-004,0.478,0.000,0.000,0.224,0.000
 ZoneInfiltration Airflow Stats Nominal, PERIMETER_TOP_ZN_4 INFILTRATION,OFFICELARGE INFIL_SCH_PNNL,PERIMETER_TOP_ZN_4 ZN,201.98,10.9,7.617E-002,3.771E-004,5.696E-004,0.495,0.000,0.000,0.224,0.000
 ZoneInfiltration Airflow Stats Nominal, TOPFLOOR_PLENUM INFILTRATION,ALWAYS ON DISCRETE,TOPFLOOR_PLENUM ZN,3563.11,0.0,0.169,4.749E-005,4.384E-005,0.140,0.000,0.000,0.224,0.000
! <AirFlow Model>, Simple
 AirFlow Model, Simple
! <RoomAir Model>, Zone Name, Mixing/Mundt/UCSDDV/UCSDCV/UCSDUFI/UCSDUFE/User Defined
RoomAir Model,BASEMENT ZN,Mixing/Well-Stirred
RoomAir Model,CORE_BOTTOM ZN,Mixing/Well-Stirred
RoomAir Model,CORE_MID ZN,Mixing/Well-Stirred
RoomAir Model,CORE_TOP ZN,Mixing/Well-Stirred
RoomAir Model,DATACENTER_BASEMENT_ZN_6 ZN,Mixing/Well-Stirred
RoomAir Model,DATACENTER_BOT_ZN_6 ZN,Mixing/Well-Stirred
RoomAir Model,DATACENTER_MID_ZN_6 ZN,Mixing/Well-Stirred
RoomAir Model,DATACENTER_TOP_ZN_6 ZN,Mixing/Well-Stirred
RoomAir Model,GROUNDFLOOR_PLENUM ZN,Mixing/Well-Stirred
RoomAir Model,MIDFLOOR_PLENUM ZN,Mixing/Well-Stirred
RoomAir Model,PERIMETER_BOT_ZN_1 ZN,Mixing/Well-Stirred
RoomAir Model,PERIMETER_BOT_ZN_2 ZN,Mixing/Well-Stirred
RoomAir Model,PERIMETER_BOT_ZN_3 ZN,Mixing/Well-Stirred
RoomAir Model,PERIMETER_BOT_ZN_4 ZN,Mixing/Well-Stirred
RoomAir Model,PERIMETER_MID_ZN_1 ZN,Mixing/Well-Stirred
RoomAir Model,PERIMETER_MID_ZN_2 ZN,Mixing/Well-Stirred
RoomAir Model,PERIMETER_MID_ZN_3 ZN,Mixing/Well-Stirred
RoomAir Model,PERIMETER_MID_ZN_4 ZN,Mixing/Well-Stirred
RoomAir Model,PERIMETER_TOP_ZN_1 ZN,Mixing/Well-Stirred
RoomAir Model,PERIMETER_TOP_ZN_2 ZN,Mixing/Well-Stirred
RoomAir Model,PERIMETER_TOP_ZN_3 ZN,Mixing/Well-Stirred
RoomAir Model,PERIMETER_TOP_ZN_4 ZN,Mixing/Well-Stirred
RoomAir Model,TOPFLOOR_PLENUM ZN,Mixing/Well-Stirred
! <AirflowNetwork Model:Control>, No Multizone or Distribution/Multizone with Distribution/Multizone without Distribution/Multizone with Distribution only during Fan Operation
AirflowNetwork Model:Control,NoMultizoneOrDistribution
! <Zone Volume Capacitance Multiplier>, Sensible Heat Capacity Multiplier, Moisture Capacity Multiplier, Carbon Dioxide Capacity Multiplier, Generic Contaminant Capacity Multiplier
Zone Volume Capacitance Multiplier,   1.000 ,   1.000,   1.000,   1.000
! <Load Timesteps in Zone Design Calculation Averaging Window>, Value
 Load Timesteps in Zone Design Calculation Averaging Window,    1
! <Heating Sizing Factor Information>, Sizing Factor ID, Value
 Heating Sizing Factor Information, Global,   1.5000    
 Heating Sizing Factor Information, Zone BASEMENT ZN,   1.5000    
 Heating Sizing Factor Information, Zone CORE_BOTTOM ZN,   1.5000    
 Heating Sizing Factor Information, Zone CORE_MID ZN,   1.5000    
 Heating Sizing Factor Information, Zone CORE_TOP ZN,   1.5000    
 Heating Sizing Factor Information, Zone DATACENTER_BASEMENT_ZN_6 ZN,   1.5000    
 Heating Sizing Factor Information, Zone DATACENTER_BOT_ZN_6 ZN,   1.5000    
 Heating Sizing Factor Information, Zone DATACENTER_MID_ZN_6 ZN,   1.5000    
 Heating Sizing Factor Information, Zone DATACENTER_TOP_ZN_6 ZN,   1.5000    
 Heating Sizing Factor Information, Zone PERIMETER_BOT_ZN_1 ZN,   1.5000    
 Heating Sizing Factor Information, Zone PERIMETER_BOT_ZN_2 ZN,   1.5000    
 Heating Sizing Factor Information, Zone PERIMETER_BOT_ZN_3 ZN,   1.5000    
 Heating Sizing Factor Information, Zone PERIMETER_BOT_ZN_4 ZN,   1.5000    
 Heating Sizing Factor Information, Zone PERIMETER_MID_ZN_1 ZN,   1.5000    
 Heating Sizing Factor Information, Zone PERIMETER_MID_ZN_2 ZN,   1.5000    
 Heating Sizing Factor Information, Zone PERIMETER_MID_ZN_3 ZN,   1.5000    
 Heating Sizing Factor Information, Zone PERIMETER_MID_ZN_4 ZN,   1.5000    
 Heating Sizing Factor Information, Zone PERIMETER_TOP_ZN_1 ZN,   1.5000    
 Heating Sizing Factor Information, Zone PERIMETER_TOP_ZN_2 ZN,   1.5000    
 Heating Sizing Factor Information, Zone PERIMETER_TOP_ZN_3 ZN,   1.5000    
 Heating Sizing Factor Information, Zone PERIMETER_TOP_ZN_4 ZN,   1.5000    
! <Cooling Sizing Factor Information>, Sizing Factor ID, Value
 Cooling Sizing Factor Information, Global,   1.5000    
 Cooling Sizing Factor Information, Zone BASEMENT ZN,   1.5000    
 Cooling Sizing Factor Information, Zone CORE_BOTTOM ZN,   1.5000    
 Cooling Sizing Factor Information, Zone CORE_MID ZN,   1.5000    
 Cooling Sizing Factor Information, Zone CORE_TOP ZN,   1.5000    
 Cooling Sizing Factor Information, Zone DATACENTER_BASEMENT_ZN_6 ZN,   1.5000    
 Cooling Sizing Factor Information, Zone DATACENTER_BOT_ZN_6 ZN,   1.5000    
 Cooling Sizing Factor Information, Zone DATACENTER_MID_ZN_6 ZN,   1.5000    
 Cooling Sizing Factor Information, Zone DATACENTER_TOP_ZN_6 ZN,   1.5000    
 Cooling Sizing Factor Information, Zone PERIMETER_BOT_ZN_1 ZN,   1.5000    
 Cooling Sizing Factor Information, Zone PERIMETER_BOT_ZN_2 ZN,   1.5000    
 Cooling Sizing Factor Information, Zone PERIMETER_BOT_ZN_3 ZN,   1.5000    
 Cooling Sizing Factor Information, Zone PERIMETER_BOT_ZN_4 ZN,   1.5000    
 Cooling Sizing Factor Information, Zone PERIMETER_MID_ZN_1 ZN,   1.5000    
 Cooling Sizing Factor Information, Zone PERIMETER_MID_ZN_2 ZN,   1.5000    
 Cooling Sizing Factor Information, Zone PERIMETER_MID_ZN_3 ZN,   1.5000    
 Cooling Sizing Factor Information, Zone PERIMETER_MID_ZN_4 ZN,   1.5000    
 Cooling Sizing Factor Information, Zone PERIMETER_TOP_ZN_1 ZN,   1.5000    
 Cooling Sizing Factor Information, Zone PERIMETER_TOP_ZN_2 ZN,   1.5000    
 Cooling Sizing Factor Information, Zone PERIMETER_TOP_ZN_3 ZN,   1.5000    
 Cooling Sizing Factor Information, Zone PERIMETER_TOP_ZN_4 ZN,   1.5000    
! <Sky Daylight Factors>, MonthAndDay, Zone Name, Window Name, Daylight Fac: Ref Pt #1, Daylight Fac: Ref Pt #2
 Clear Sky Daylight Factors,07/21,PERIMETER_BOT_ZN_1 ZN,PERIMETER_BOT_ZN_1_WALL_SOUTH_WINDOW,3.4117E-002,0.0000
 Clear Turbid Sky Daylight Factors,07/21,PERIMETER_BOT_ZN_1 ZN,PERIMETER_BOT_ZN_1_WALL_SOUTH_WINDOW,3.1366E-002,0.0000
 Intermediate Sky Daylight Factors,07/21,PERIMETER_BOT_ZN_1 ZN,PERIMETER_BOT_ZN_1_WALL_SOUTH_WINDOW,2.3036E-002,0.0000
 Overcast Sky Daylight Factors,07/21,PERIMETER_BOT_ZN_1 ZN,PERIMETER_BOT_ZN_1_WALL_SOUTH_WINDOW,2.2068E-002,0.0000
 Clear Sky Daylight Factors,07/21,PERIMETER_BOT_ZN_2 ZN,PERIMETER_BOT_ZN_2_WALL_EAST_WINDOW,3.0618E-002,0.0000
 Clear Turbid Sky Daylight Factors,07/21,PERIMETER_BOT_ZN_2 ZN,PERIMETER_BOT_ZN_2_WALL_EAST_WINDOW,2.7359E-002,0.0000
 Intermediate Sky Daylight Factors,07/21,PERIMETER_BOT_ZN_2 ZN,PERIMETER_BOT_ZN_2_WALL_EAST_WINDOW,2.0051E-002,0.0000
 Overcast Sky Daylight Factors,07/21,PERIMETER_BOT_ZN_2 ZN,PERIMETER_BOT_ZN_2_WALL_EAST_WINDOW,2.2322E-002,0.0000
 Clear Sky Daylight Factors,07/21,PERIMETER_BOT_ZN_3 ZN,PERIMETER_BOT_ZN_3_WALL_NORTH_WINDOW,2.2565E-002,0.0000
 Clear Turbid Sky Daylight Factors,07/21,PERIMETER_BOT_ZN_3 ZN,PERIMETER_BOT_ZN_3_WALL_NORTH_WINDOW,1.8418E-002,0.0000
 Intermediate Sky Daylight Factors,07/21,PERIMETER_BOT_ZN_3 ZN,PERIMETER_BOT_ZN_3_WALL_NORTH_WINDOW,1.1614E-002,0.0000
 Overcast Sky Daylight Factors,07/21,PERIMETER_BOT_ZN_3 ZN,PERIMETER_BOT_ZN_3_WALL_NORTH_WINDOW,2.2068E-002,0.0000
 Clear Sky Daylight Factors,07/21,PERIMETER_BOT_ZN_4 ZN,PERIMETER_BOT_ZN_4_WALL_WEST_WINDOW,2.4180E-002,0.0000
 Clear Turbid Sky Daylight Factors,07/21,PERIMETER_BOT_ZN_4 ZN,PERIMETER_BOT_ZN_4_WALL_WEST_WINDOW,2.0171E-002,0.0000
 Intermediate Sky Daylight Factors,07/21,PERIMETER_BOT_ZN_4 ZN,PERIMETER_BOT_ZN_4_WALL_WEST_WINDOW,1.3600E-002,0.0000
 Overcast Sky Daylight Factors,07/21,PERIMETER_BOT_ZN_4 ZN,PERIMETER_BOT_ZN_4_WALL_WEST_WINDOW,2.2322E-002,0.0000
 Clear Sky Daylight Factors,07/21,PERIMETER_MID_ZN_1 ZN,PERIMETER_MID_ZN_1_WALL_SOUTH_WINDOW,3.6587E-002,0.0000
 Clear Turbid Sky Daylight Factors,07/21,PERIMETER_MID_ZN_1 ZN,PERIMETER_MID_ZN_1_WALL_SOUTH_WINDOW,3.3720E-002,0.0000
 Intermediate Sky Daylight Factors,07/21,PERIMETER_MID_ZN_1 ZN,PERIMETER_MID_ZN_1_WALL_SOUTH_WINDOW,2.4901E-002,0.0000
 Overcast Sky Daylight Factors,07/21,PERIMETER_MID_ZN_1 ZN,PERIMETER_MID_ZN_1_WALL_SOUTH_WINDOW,2.3692E-002,0.0000
 Clear Sky Daylight Factors,07/21,PERIMETER_MID_ZN_2 ZN,PERIMETER_MID_ZN_2_WALL_EAST_WINDOW,3.2789E-002,0.0000
 Clear Turbid Sky Daylight Factors,07/21,PERIMETER_MID_ZN_2 ZN,PERIMETER_MID_ZN_2_WALL_EAST_WINDOW,2.9365E-002,0.0000
 Intermediate Sky Daylight Factors,07/21,PERIMETER_MID_ZN_2 ZN,PERIMETER_MID_ZN_2_WALL_EAST_WINDOW,2.1641E-002,0.0000
 Overcast Sky Daylight Factors,07/21,PERIMETER_MID_ZN_2 ZN,PERIMETER_MID_ZN_2_WALL_EAST_WINDOW,2.3953E-002,0.0000
 Clear Sky Daylight Factors,07/21,PERIMETER_MID_ZN_3 ZN,PERIMETER_MID_ZN_3_WALL_NORTH_WINDOW,2.4089E-002,0.0000
 Clear Turbid Sky Daylight Factors,07/21,PERIMETER_MID_ZN_3 ZN,PERIMETER_MID_ZN_3_WALL_NORTH_WINDOW,1.9681E-002,0.0000
 Intermediate Sky Daylight Factors,07/21,PERIMETER_MID_ZN_3 ZN,PERIMETER_MID_ZN_3_WALL_NORTH_WINDOW,1.2502E-002,0.0000
 Overcast Sky Daylight Factors,07/21,PERIMETER_MID_ZN_3 ZN,PERIMETER_MID_ZN_3_WALL_NORTH_WINDOW,2.3692E-002,0.0000
 Clear Sky Daylight Factors,07/21,PERIMETER_MID_ZN_4 ZN,PERIMETER_MID_ZN_4_WALL_WEST_WINDOW,2.5826E-002,0.0000
 Clear Turbid Sky Daylight Factors,07/21,PERIMETER_MID_ZN_4 ZN,PERIMETER_MID_ZN_4_WALL_WEST_WINDOW,2.1572E-002,0.0000
 Intermediate Sky Daylight Factors,07/21,PERIMETER_MID_ZN_4 ZN,PERIMETER_MID_ZN_4_WALL_WEST_WINDOW,1.4644E-002,0.0000
 Overcast Sky Daylight Factors,07/21,PERIMETER_MID_ZN_4 ZN,PERIMETER_MID_ZN_4_WALL_WEST_WINDOW,2.3953E-002,0.0000
 Clear Sky Daylight Factors,07/21,PERIMETER_TOP_ZN_1 ZN,PERIMETER_TOP_ZN_1_WALL_SOUTH_WINDOW,3.6587E-002,0.0000
 Clear Turbid Sky Daylight Factors,07/21,PERIMETER_TOP_ZN_1 ZN,PERIMETER_TOP_ZN_1_WALL_SOUTH_WINDOW,3.3720E-002,0.0000
 Intermediate Sky Daylight Factors,07/21,PERIMETER_TOP_ZN_1 ZN,PERIMETER_TOP_ZN_1_WALL_SOUTH_WINDOW,2.4901E-002,0.0000
 Overcast Sky Daylight Factors,07/21,PERIMETER_TOP_ZN_1 ZN,PERIMETER_TOP_ZN_1_WALL_SOUTH_WINDOW,2.3692E-002,0.0000
 Clear Sky Daylight Factors,07/21,PERIMETER_TOP_ZN_2 ZN,PERIMETER_TOP_ZN_2_WALL_EAST_WINDOW,3.2789E-002,0.0000
 Clear Turbid Sky Daylight Factors,07/21,PERIMETER_TOP_ZN_2 ZN,PERIMETER_TOP_ZN_2_WALL_EAST_WINDOW,2.9365E-002,0.0000
 Intermediate Sky Daylight Factors,07/21,PERIMETER_TOP_ZN_2 ZN,PERIMETER_TOP_ZN_2_WALL_EAST_WINDOW,2.1641E-002,0.0000
 Overcast Sky Daylight Factors,07/21,PERIMETER_TOP_ZN_2 ZN,PERIMETER_TOP_ZN_2_WALL_EAST_WINDOW,2.3953E-002,0.0000
 Clear Sky Daylight Factors,07/21,PERIMETER_TOP_ZN_3 ZN,PERIMETER_TOP_ZN_3_WALL_NORTH_WINDOW,2.4089E-002,0.0000
 Clear Turbid Sky Daylight Factors,07/21,PERIMETER_TOP_ZN_3 ZN,PERIMETER_TOP_ZN_3_WALL_NORTH_WINDOW,1.9681E-002,0.0000
 Intermediate Sky Daylight Factors,07/21,PERIMETER_TOP_ZN_3 ZN,PERIMETER_TOP_ZN_3_WALL_NORTH_WINDOW,1.2502E-002,0.0000
 Overcast Sky Daylight Factors,07/21,PERIMETER_TOP_ZN_3 ZN,PERIMETER_TOP_ZN_3_WALL_NORTH_WINDOW,2.3692E-002,0.0000
 Clear Sky Daylight Factors,07/21,PERIMETER_TOP_ZN_4 ZN,PERIMETER_TOP_ZN_4_WALL_WEST_WINDOW,2.5826E-002,0.0000
 Clear Turbid Sky Daylight Factors,07/21,PERIMETER_TOP_ZN_4 ZN,PERIMETER_TOP_ZN_4_WALL_WEST_WINDOW,2.1572E-002,0.0000
 Intermediate Sky Daylight Factors,07/21,PERIMETER_TOP_ZN_4 ZN,PERIMETER_TOP_ZN_4_WALL_WEST_WINDOW,1.4644E-002,0.0000
 Overcast Sky Daylight Factors,07/21,PERIMETER_TOP_ZN_4 ZN,PERIMETER_TOP_ZN_4_WALL_WEST_WINDOW,2.3953E-002,0.0000
! <Zone Sizing Information>, Zone Name, Load Type, Calc Des Load {W}, User Des Load {W}, Calc Des Air Flow Rate {m3/s}, User Des Air Flow Rate {m3/s}, Design Day Name, Date/Time of Peak, Temperature at Peak {C}, Humidity Ratio at Peak {kgWater/kgDryAir}, Floor Area {m2}, # Occupants, Calc Outdoor Air Flow Rate {m3/s}, Calc DOAS Heat Addition Rate {W}
 Zone Sizing Information, BASEMENT ZN, Cooling, 45006.12326, 67509.18488, 3.28748, 4.93122, BALTIMORE BLT WASHNGTN INTL ANN CLG .4% CONDNS DB=>MWB, 7/21 18:00:00, 31.90400, 1.44590E-002, 2779.42662, 149.58750, 1.20016, 0.00000
 Zone Sizing Information, BASEMENT ZN, Heating, 16175.18856, 24262.78284, 0.50931, 1.20016, BALTIMORE BLT WASHNGTN INTL ANN HTG 99.6% CONDNS DB, 1/21 01:00:00, -10.60000, 1.52428E-003, 2779.42662, 149.58750, 1.20016, 0.00000
 Zone Sizing Information, CORE_BOTTOM ZN, Cooling, 70212.95617, 105319.43425, 5.12862, 7.69292, BALTIMORE BLT WASHNGTN INTL ANN CLG .4% CONDNS DB=>MWB, 7/21 16:00:00, 33.77600, 1.44590E-002, 2496.12046, 134.34009, 1.07782, 0.00000
 Zone Sizing Information, CORE_BOTTOM ZN, Heating, 0.00000, 0.00000, 0.00000, 1.07782, BALTIMORE BLT WASHNGTN INTL ANN HTG 99.6% CONDNS DB, , -10.60000, 1.52428E-003, 2496.12046, 134.34009, 1.07782, 0.00000
 Zone Sizing Information, CORE_MID ZN, Cooling, 574841.52110, 862262.28165, 41.98906, 62.98358, BALTIMORE BLT WASHNGTN INTL ANN CLG .4% CONDNS DB=>MWB, 7/21 16:00:00, 33.77600, 1.44590E-002, 2496.12046, 134.34009, 10.77825, 0.00000
 Zone Sizing Information, CORE_MID ZN, Heating, 91475.59904, 137213.39856, 4.68046, 10.77825, BALTIMORE BLT WASHNGTN INTL ANN HTG 99.6% CONDNS DB, 1/21 24:00:00, -10.60000, 1.52428E-003, 2496.12046, 134.34009, 10.77825, 0.00000
 Zone Sizing Information, CORE_TOP ZN, Cooling, 68864.50284, 103296.75426, 5.02991, 7.54486, BALTIMORE BLT WASHNGTN INTL ANN CLG .4% CONDNS DB=>MWB, 7/21 19:00:00, 30.34400, 1.44590E-002, 2496.12046, 134.34009, 1.07782, 0.00000
 Zone Sizing Information, CORE_TOP ZN, Heating, 31510.39813, 47265.59720, 1.61227, 2.41840, BALTIMORE BLT WASHNGTN INTL ANN HTG 99.6% CONDNS DB, 1/21 24:00:00, -10.60000, 1.52428E-003, 2496.12046, 134.34009, 1.07782, 0.00000
 Zone Sizing Information, DATACENTER_BASEMENT_ZN_6 ZN, Cooling, 308988.27860, 463482.41789, 17.79758, 26.69637, BALTIMORE BLT WASHNGTN INTL ANN CLG .4% CONDNS DB=>MWB, 7/21 19:00:00, 30.34400, 1.44590E-002, 783.67941, 0.00000, 0.00000, 0.00000
 Zone Sizing Information, DATACENTER_BOT_ZN_6 ZN, Cooling, 7280.62046, 10920.93069, 0.41936, 0.62904, BALTIMORE BLT WASHNGTN INTL ANN CLG .4% CONDNS DB=>MWB, 7/21 19:00:00, 30.34400, 1.44590E-002, 36.20274, 0.00000, 0.00000, 0.00000
 Zone Sizing Information, DATACENTER_MID_ZN_6 ZN, Cooling, 63562.78197, 95344.17295, 3.66119, 5.49178, BALTIMORE BLT WASHNGTN INTL ANN CLG .4% CONDNS DB=>MWB, 7/21 19:00:00, 30.34400, 1.44590E-002, 36.20274, 0.00000, 0.00000, 0.00000
 Zone Sizing Information, DATACENTER_TOP_ZN_6 ZN, Cooling, 6588.15245, 9882.22867, 0.37947, 0.56921, BALTIMORE BLT WASHNGTN INTL ANN CLG .4% CONDNS DB=>MWB, 7/21 19:00:00, 30.34400, 1.44590E-002, 36.20274, 0.00000, 0.00000, 0.00000
 Zone Sizing Information, PERIMETER_BOT_ZN_1 ZN, Cooling, 18657.71440, 27986.57160, 1.36275, 2.04413, BALTIMORE BLT WASHNGTN INTL ANN CLG .4% CONDNS DB=>MWB, 7/21 13:00:00, 33.88000, 1.44590E-002, 313.41969, 16.86811, 0.13533, 0.00000
 Zone Sizing Information, PERIMETER_BOT_ZN_1 ZN, Heating, 7796.83212, 11695.24818, 0.39889, 0.59834, BALTIMORE BLT WASHNGTN INTL ANN HTG 99.6% CONDNS DB, 1/21 02:00:00, -10.60000, 1.52428E-003, 313.41969, 16.86811, 0.13533, 0.00000
 Zone Sizing Information, PERIMETER_BOT_ZN_2 ZN, Cooling, 15561.41452, 23342.12179, 1.13660, 1.70490, BALTIMORE BLT WASHNGTN INTL ANN CLG .4% CONDNS DB=>MWB, 7/21 09:00:00, 28.68000, 1.44590E-002, 201.97515, 10.87021, 8.72129E-002, 0.00000
 Zone Sizing Information, PERIMETER_BOT_ZN_2 ZN, Heating, 6379.08319, 9568.62479, 0.32636, 0.48954, BALTIMORE BLT WASHNGTN INTL ANN HTG 99.6% CONDNS DB, 1/21 02:00:00, -10.60000, 1.52428E-003, 201.97515, 10.87021, 8.72129E-002, 0.00000
 Zone Sizing Information, PERIMETER_BOT_ZN_3 ZN, Cooling, 13521.53668, 20282.30502, 0.98762, 1.48143, BALTIMORE BLT WASHNGTN INTL ANN CLG .4% CONDNS DB=>MWB, 7/21 15:00:00, 34.40000, 1.44590E-002, 313.41284, 16.86774, 0.13533, 0.00000
 Zone Sizing Information, PERIMETER_BOT_ZN_3 ZN, Heating, 7786.15914, 11679.23871, 0.39834, 0.59752, BALTIMORE BLT WASHNGTN INTL ANN HTG 99.6% CONDNS DB, 1/21 02:00:00, -10.60000, 1.52428E-003, 313.41284, 16.86774, 0.13533, 0.00000
 Zone Sizing Information, PERIMETER_BOT_ZN_4 ZN, Cooling, 24083.13258, 36124.69887, 1.75904, 2.63855, BALTIMORE BLT WASHNGTN INTL ANN CLG .4% CONDNS DB=>MWB, 7/21 17:00:00, 32.94400, 1.44590E-002, 201.97515, 10.87021, 8.72129E-002, 0.00000
 Zone Sizing Information, PERIMETER_BOT_ZN_4 ZN, Heating, 16.30242, 24.45364, 8.34129E-004, 8.72129E-002, BALTIMORE BLT WASHNGTN INTL ANN HTG 99.6% CONDNS DB, 1/21 06:00:00, -10.60000, 1.52428E-003, 201.97515, 10.87021, 8.72129E-002, 0.00000
 Zone Sizing Information, PERIMETER_MID_ZN_1 ZN, Cooling, 178069.76593, 267104.64889, 13.00655, 19.50983, BALTIMORE BLT WASHNGTN INTL ANN CLG .4% CONDNS DB=>MWB, 7/21 13:00:00, 33.88000, 1.44590E-002, 313.41969, 16.86811, 1.35335, 0.00000
 Zone Sizing Information, PERIMETER_MID_ZN_1 ZN, Heating, 125361.63087, 188042.44630, 6.41272, 9.61908, BALTIMORE BLT WASHNGTN INTL ANN HTG 99.6% CONDNS DB, 1/21 06:00:00, -10.60000, 1.52428E-003, 313.41969, 16.86811, 1.35335, 0.00000
 Zone Sizing Information, PERIMETER_MID_ZN_2 ZN, Cooling, 175722.85247, 263584.27871, 12.83561, 19.25341, BALTIMORE BLT WASHNGTN INTL ANN CLG .4% CONDNS DB=>MWB, 7/21 09:00:00, 28.68000, 1.44590E-002, 201.97515, 10.87021, 0.87213, 0.00000
 Zone Sizing Information, PERIMETER_MID_ZN_2 ZN, Heating, 83772.69138, 125659.03707, 4.28527, 6.42790, BALTIMORE BLT WASHNGTN INTL ANN HTG 99.6% CONDNS DB, 1/21 06:00:00, -10.60000, 1.52428E-003, 201.97515, 10.87021, 0.87213, 0.00000
 Zone Sizing Information, PERIMETER_MID_ZN_3 ZN, Cooling, 119897.76807, 179846.65211, 8.75769, 13.13653, BALTIMORE BLT WASHNGTN INTL ANN CLG .4% CONDNS DB=>MWB, 7/21 15:00:00, 34.40000, 1.44590E-002, 313.41284, 16.86774, 1.35332, 0.00000
 Zone Sizing Information, PERIMETER_MID_ZN_3 ZN, Heating, 126963.79250, 190445.68875, 6.49468, 9.74201, BALTIMORE BLT WASHNGTN INTL ANN HTG 99.6% CONDNS DB, 1/21 06:00:00, -10.60000, 1.52428E-003, 313.41284, 16.86774, 1.35332, 0.00000
 Zone Sizing Information, PERIMETER_MID_ZN_4 ZN, Cooling, 196401.30745, 294601.96117, 14.34598, 21.51897, BALTIMORE BLT WASHNGTN INTL ANN CLG .4% CONDNS DB=>MWB, 7/21 17:00:00, 32.94400, 1.44590E-002, 201.97515, 10.87021, 0.87213, 0.00000
 Zone Sizing Information, PERIMETER_MID_ZN_4 ZN, Heating, 74865.01981, 112297.52972, 3.82955, 5.74433, BALTIMORE BLT WASHNGTN INTL ANN HTG 99.6% CONDNS DB, 1/21 06:00:00, -10.60000, 1.52428E-003, 201.97515, 10.87021, 0.87213, 0.00000
 Zone Sizing Information, PERIMETER_TOP_ZN_1 ZN, Cooling, 18620.41321, 27930.61982, 1.36009, 2.04013, BALTIMORE BLT WASHNGTN INTL ANN CLG .4% CONDNS DB=>MWB, 7/21 13:00:00, 33.88000, 1.44590E-002, 313.41969, 16.86811, 0.13533, 0.00000
 Zone Sizing Information, PERIMETER_TOP_ZN_1 ZN, Heating, 16315.43992, 24473.15988, 0.83456, 1.25184, BALTIMORE BLT WASHNGTN INTL ANN HTG 99.6% CONDNS DB, 1/21 06:00:00, -10.60000, 1.52428E-003, 313.41969, 16.86811, 0.13533, 0.00000
 Zone Sizing Information, PERIMETER_TOP_ZN_2 ZN, Cooling, 17807.95665, 26711.93498, 1.30080, 1.95121, BALTIMORE BLT WASHNGTN INTL ANN CLG .4% CONDNS DB=>MWB, 7/21 09:00:00, 28.68000, 1.44590E-002, 201.97515, 10.87021, 8.72129E-002, 0.00000
 Zone Sizing Information, PERIMETER_TOP_ZN_2 ZN, Heating, 10836.08884, 16254.13326, 0.55428, 0.83142, BALTIMORE BLT WASHNGTN INTL ANN HTG 99.6% CONDNS DB, 1/21 06:00:00, -10.60000, 1.52428E-003, 201.97515, 10.87021, 8.72129E-002, 0.00000
 Zone Sizing Information, PERIMETER_TOP_ZN_3 ZN, Cooling, 13144.52868, 19716.79302, 0.96013, 1.44019, BALTIMORE BLT WASHNGTN INTL ANN CLG .4% CONDNS DB=>MWB, 7/21 15:00:00, 34.40000, 1.44590E-002, 313.41284, 16.86774, 0.13533, 0.00000
 Zone Sizing Information, PERIMETER_TOP_ZN_3 ZN, Heating, 16521.99951, 24782.99926, 0.84512, 1.26769, BALTIMORE BLT WASHNGTN INTL ANN HTG 99.6% CONDNS DB, 1/21 06:00:00, -10.60000, 1.52428E-003, 313.41284, 16.86774, 0.13533, 0.00000
 Zone Sizing Information, PERIMETER_TOP_ZN_4 ZN, Cooling, 20525.85752, 30788.78628, 1.49931, 2.24897, BALTIMORE BLT WASHNGTN INTL ANN CLG .4% CONDNS DB=>MWB, 7/21 17:00:00, 32.94400, 1.44590E-002, 201.97515, 10.87021, 8.72129E-002, 0.00000
 Zone Sizing Information, PERIMETER_TOP_ZN_4 ZN, Heating, 9873.93984, 14810.90976, 0.50506, 0.75758, BALTIMORE BLT WASHNGTN INTL ANN HTG 99.6% CONDNS DB, 1/21 06:00:00, -10.60000, 1.52428E-003, 201.97515, 10.87021, 8.72129E-002, 0.00000
! <System Sizing Information>, System Name, Load Type, Peak Load Kind, User Design Capacity, Calc Des Air Flow Rate [m3/s], User Des Air Flow Rate [m3/s], Design Day Name, Date/Time of Peak
 System Sizing Information, CAV_BAS, Cooling, Sensible, 81413.00, 4.93130, 4.93130, BALTIMORE BLT WASHNGTN INTL ANN CLG .4% CONDNS DB=>MWB, 7/21 00:00:00
 System Sizing Information, CAV_BAS, Heating, Sensible, 39438.92, 1.20016, 1.20016, BALTIMORE BLT WASHNGTN INTL ANN HTG 99.6% CONDNS DB, 1/21 01:00:00
 System Sizing Information, DATACENTER_BASEMENT_ZN_6 ZN PSZ-AC DATA CENTER, Cooling, Sensible, 456315.45, 26.69637, 26.69637, BALTIMORE BLT WASHNGTN INTL ANN CLG .4% CONDNS DB=>MWB, 7/21 00:00:00
 System Sizing Information, DATACENTER_BASEMENT_ZN_6 ZN PSZ-AC DATA CENTER, Heating, Sensible, 0.00, 0.00000, 0.00000, ,  00:00:00
 System Sizing Information, DATACENTER_BOT_ZN_6 ZN PSZ-AC DATA CENTER, Cooling, Sensible, 10752.06, 0.62904, 0.62904, BALTIMORE BLT WASHNGTN INTL ANN CLG .4% CONDNS DB=>MWB, 7/21 00:00:00
 System Sizing Information, DATACENTER_BOT_ZN_6 ZN PSZ-AC DATA CENTER, Heating, Sensible, 0.00, 0.00000, 0.00000, ,  00:00:00
 System Sizing Information, DATACENTER_MID_ZN_6 ZN PSZ-AC DATA CENTER, Cooling, Sensible, 93869.84, 5.49178, 5.49178, BALTIMORE BLT WASHNGTN INTL ANN CLG .4% CONDNS DB=>MWB, 7/21 00:00:00
 System Sizing Information, DATACENTER_MID_ZN_6 ZN PSZ-AC DATA CENTER, Heating, Sensible, 0.00, 0.00000, 0.00000, ,  00:00:00
 System Sizing Information, DATACENTER_TOP_ZN_6 ZN PSZ-AC DATA CENTER, Cooling, Sensible, 9729.42, 0.56921, 0.56921, BALTIMORE BLT WASHNGTN INTL ANN CLG .4% CONDNS DB=>MWB, 7/21 00:00:00
 System Sizing Information, DATACENTER_TOP_ZN_6 ZN PSZ-AC DATA CENTER, Heating, Sensible, 0.00, 0.00000, 0.00000, ,  00:00:00
 System Sizing Information, VAV_BOT WITH REHEAT, Cooling, Sensible, 225387.18, 14.41318, 14.41318, BALTIMORE BLT WASHNGTN INTL ANN CLG .4% CONDNS DB=>MWB, 7/21 00:00:00
 System Sizing Information, VAV_BOT WITH REHEAT, Heating, Sensible, 69525.53, 2.85043, 2.85043, BALTIMORE BLT WASHNGTN INTL ANN HTG 99.6% CONDNS DB, 1/21 18:00:00
 System Sizing Information, VAV_MID WITH REHEAT, Cooling, Sensible, 1667299.08, 122.25502, 122.25502, BALTIMORE BLT WASHNGTN INTL ANN CLG .4% CONDNS DB=>MWB, 7/21 00:00:00
 System Sizing Information, VAV_MID WITH REHEAT, Heating, Sensible, 0.00, 0.00000, 0.00000, ,  00:00:00
 System Sizing Information, VAV_TOP WITH REHEAT, Cooling, Sensible, 215445.24, 13.76773, 13.76773, BALTIMORE BLT WASHNGTN INTL ANN CLG .4% CONDNS DB=>MWB, 7/21 00:00:00
 System Sizing Information, VAV_TOP WITH REHEAT, Heating, Sensible, 26655.05, 6.52683, 6.52683, BALTIMORE BLT WASHNGTN INTL ANN HTG 99.6% CONDNS DB, 1/21 07:00:00
! <Component Sizing Information>, Component Type, Component Name, Input Field Description, Value
 Component Sizing Information, AirTerminal:SingleDuct:VAV:Reheat, BASEMENT ZN VAV TERM, Design Size Maximum Air Flow Rate [m3/s], 4.93122
 Component Sizing Information, AirTerminal:SingleDuct:VAV:Reheat, BASEMENT ZN VAV TERM, Design Size Constant Minimum Air Flow Fraction, 0.42949
 Component Sizing Information, AirTerminal:SingleDuct:VAV:Reheat, BASEMENT ZN VAV TERM, User-Specified Constant Minimum Air Flow Fraction, 0.20000
 Component Sizing Information, AirTerminal:SingleDuct:VAV:Reheat, BASEMENT ZN VAV TERM, Design Size Minimum Air Flow Rate [m3/s], 0.98624
 Component Sizing Information, AirTerminal:SingleDuct:VAV:Reheat, BASEMENT ZN VAV TERM, Design Size Maximum Flow per Zone Floor Area during Reheat [m3/s-m2], 3.54838E-004
 Component Sizing Information, AirTerminal:SingleDuct:VAV:Reheat, BASEMENT ZN VAV TERM, Design Size Maximum Flow Fraction during Reheat [], 0.20000
 Component Sizing Information, AirTerminal:SingleDuct:VAV:Reheat, BASEMENT ZN VAV TERM, Design Size Maximum Reheat Water Flow Rate [m3/s], 7.23054E-004
 Component Sizing Information, AirTerminal:SingleDuct:VAV:Reheat, BASEMENT ZN VAV TERM, Design Size Reheat Coil Sizing Air Volume Flow Rate [m3/s], 0.98624
 Component Sizing Information, AirTerminal:SingleDuct:VAV:Reheat, BASEMENT ZN VAV TERM, Design Size Reheat Coil Sizing Inlet Air Temperature [C], 16.70000
 Component Sizing Information, AirTerminal:SingleDuct:VAV:Reheat, BASEMENT ZN VAV TERM, Design Size Reheat Coil Sizing Inlet Air Humidity Ratio [kgWater/kgDryAir], 8.00000E-003
 Component Sizing Information, Coil:Heating:Water, BASEMENT ZN RHT COIL, Design Size Rated Capacity [W], 33618.56974
 Component Sizing Information, Coil:Heating:Water, BASEMENT ZN RHT COIL, Design Size Maximum Water Flow Rate [m3/s], 7.23054E-004
 Component Sizing Information, Coil:Heating:Water, BASEMENT ZN RHT COIL, Design Size U-Factor Times Area Value [W/K], 748.98773
! <Water Heating Coil Capacity Information>,Component Type,Name,Nominal Total Capacity {W}
Water Heating Coil Capacity Information,Coil:Heating:Water,BASEMENT ZN RHT COIL,33124.22
 Component Sizing Information, AirTerminal:SingleDuct:VAV:Reheat, CORE_BOTTOM ZN VAV TERM, Design Size Maximum Air Flow Rate [m3/s], 7.69292
 Component Sizing Information, AirTerminal:SingleDuct:VAV:Reheat, CORE_BOTTOM ZN VAV TERM, Design Size Constant Minimum Air Flow Fraction, 0.24725
 Component Sizing Information, AirTerminal:SingleDuct:VAV:Reheat, CORE_BOTTOM ZN VAV TERM, User-Specified Constant Minimum Air Flow Fraction, 0.30284
 Component Sizing Information, AirTerminal:SingleDuct:VAV:Reheat, CORE_BOTTOM ZN VAV TERM, Design Size Minimum Air Flow Rate [m3/s], 2.32976
 Component Sizing Information, AirTerminal:SingleDuct:VAV:Reheat, CORE_BOTTOM ZN VAV TERM, Design Size Maximum Flow per Zone Floor Area during Reheat [m3/s-m2], 9.33354E-004
 Component Sizing Information, AirTerminal:SingleDuct:VAV:Reheat, CORE_BOTTOM ZN VAV TERM, Design Size Maximum Flow Fraction during Reheat [], 0.30284
 Component Sizing Information, AirTerminal:SingleDuct:VAV:Reheat, CORE_BOTTOM ZN VAV TERM, Design Size Maximum Reheat Water Flow Rate [m3/s], 6.97159E-004
 Component Sizing Information, AirTerminal:SingleDuct:VAV:Reheat, CORE_BOTTOM ZN VAV TERM, Design Size Reheat Coil Sizing Air Volume Flow Rate [m3/s], 2.32976
 Component Sizing Information, AirTerminal:SingleDuct:VAV:Reheat, CORE_BOTTOM ZN VAV TERM, Design Size Reheat Coil Sizing Inlet Air Temperature [C], 12.80000
 Component Sizing Information, AirTerminal:SingleDuct:VAV:Reheat, CORE_BOTTOM ZN VAV TERM, Design Size Reheat Coil Sizing Inlet Air Humidity Ratio [kgWater/kgDryAir], 8.00000E-003
 Component Sizing Information, Coil:Heating:Water, CORE_BOTTOM ZN RHT COIL, Design Size Rated Capacity [W], 32414.59501
 Component Sizing Information, Coil:Heating:Water, CORE_BOTTOM ZN RHT COIL, Design Size Maximum Water Flow Rate [m3/s], 6.97159E-004
 Component Sizing Information, Coil:Heating:Water, CORE_BOTTOM ZN RHT COIL, Design Size U-Factor Times Area Value [W/K], 575.15175
Water Heating Coil Capacity Information,Coil:Heating:Water,CORE_BOTTOM ZN RHT COIL,30174.76
 Component Sizing Information, AirTerminal:SingleDuct:VAV:Reheat, CORE_MID ZN VAV TERM, Design Size Maximum Air Flow Rate [m3/s], 62.98358
 Component Sizing Information, AirTerminal:SingleDuct:VAV:Reheat, CORE_MID ZN VAV TERM, Design Size Constant Minimum Air Flow Fraction, 0.30199
 Component Sizing Information, AirTerminal:SingleDuct:VAV:Reheat, CORE_MID ZN VAV TERM, User-Specified Constant Minimum Air Flow Fraction, 0.20000
 Component Sizing Information, AirTerminal:SingleDuct:VAV:Reheat, CORE_MID ZN VAV TERM, Design Size Minimum Air Flow Rate [m3/s], 12.59672
 Component Sizing Information, AirTerminal:SingleDuct:VAV:Reheat, CORE_MID ZN VAV TERM, Design Size Maximum Flow per Zone Floor Area during Reheat [m3/s-m2], 5.04652E-004
 Component Sizing Information, AirTerminal:SingleDuct:VAV:Reheat, CORE_MID ZN VAV TERM, Design Size Maximum Flow Fraction during Reheat [], 0.20000
 Component Sizing Information, AirTerminal:SingleDuct:VAV:Reheat, CORE_MID ZN VAV TERM, Design Size Maximum Reheat Water Flow Rate [m3/s], 6.77069E-003
 Component Sizing Information, AirTerminal:SingleDuct:VAV:Reheat, CORE_MID ZN VAV TERM, Design Size Reheat Coil Sizing Air Volume Flow Rate [m3/s], 12.59672
 Component Sizing Information, AirTerminal:SingleDuct:VAV:Reheat, CORE_MID ZN VAV TERM, Design Size Reheat Coil Sizing Inlet Air Temperature [C], 12.80000
 Component Sizing Information, AirTerminal:SingleDuct:VAV:Reheat, CORE_MID ZN VAV TERM, Design Size Reheat Coil Sizing Inlet Air Humidity Ratio [kgWater/kgDryAir], 8.00000E-003
 Component Sizing Information, Coil:Heating:Water, CORE_MID ZN RHT COIL, Design Size Rated Capacity [W], 314805.09069
 Component Sizing Information, Coil:Heating:Water, CORE_MID ZN RHT COIL, Design Size Maximum Water Flow Rate [m3/s], 6.77069E-003
 Component Sizing Information, Coil:Heating:Water, CORE_MID ZN RHT COIL, Design Size U-Factor Times Area Value [W/K], 5990.29263
Water Heating Coil Capacity Information,Coil:Heating:Water,CORE_MID ZN RHT COIL,292892.53
 Component Sizing Information, AirTerminal:SingleDuct:VAV:Reheat, CORE_TOP ZN VAV TERM, Design Size Maximum Air Flow Rate [m3/s], 7.54486
 Component Sizing Information, AirTerminal:SingleDuct:VAV:Reheat, CORE_TOP ZN VAV TERM, Design Size Constant Minimum Air Flow Fraction, 0.25210
 Component Sizing Information, AirTerminal:SingleDuct:VAV:Reheat, CORE_TOP ZN VAV TERM, User-Specified Constant Minimum Air Flow Fraction, 0.33529
 Component Sizing Information, AirTerminal:SingleDuct:VAV:Reheat, CORE_TOP ZN VAV TERM, Design Size Minimum Air Flow Rate [m3/s], 2.52974
 Component Sizing Information, AirTerminal:SingleDuct:VAV:Reheat, CORE_TOP ZN VAV TERM, Design Size Maximum Flow per Zone Floor Area during Reheat [m3/s-m2], 1.01347E-003
 Component Sizing Information, AirTerminal:SingleDuct:VAV:Reheat, CORE_TOP ZN VAV TERM, Design Size Maximum Flow Fraction during Reheat [], 0.33529
 Component Sizing Information, AirTerminal:SingleDuct:VAV:Reheat, CORE_TOP ZN VAV TERM, Design Size Maximum Reheat Water Flow Rate [m3/s], 1.79083E-003
 Component Sizing Information, AirTerminal:SingleDuct:VAV:Reheat, CORE_TOP ZN VAV TERM, Design Size Reheat Coil Sizing Air Volume Flow Rate [m3/s], 2.52974
 Component Sizing Information, AirTerminal:SingleDuct:VAV:Reheat, CORE_TOP ZN VAV TERM, Design Size Reheat Coil Sizing Inlet Air Temperature [C], 12.80000
 Component Sizing Information, AirTerminal:SingleDuct:VAV:Reheat, CORE_TOP ZN VAV TERM, Design Size Reheat Coil Sizing Inlet Air Humidity Ratio [kgWater/kgDryAir], 8.00000E-003
 Component Sizing Information, Coil:Heating:Water, CORE_TOP ZN RHT COIL, Design Size Rated Capacity [W], 83265.19259
 Component Sizing Information, Coil:Heating:Water, CORE_TOP ZN RHT COIL, Design Size Maximum Water Flow Rate [m3/s], 1.79083E-003
 Component Sizing Information, Coil:Heating:Water, CORE_TOP ZN RHT COIL, Design Size U-Factor Times Area Value [W/K], 1687.54271
Water Heating Coil Capacity Information,Coil:Heating:Water,CORE_TOP ZN RHT COIL,77436.48
 Component Sizing Information, AirTerminal:SingleDuct:Uncontrolled, DATACENTER_BASEMENT_ZN_6 ZN PSZ-AC DATA CENTER DIFFUSER, Design Size Maximum Air Flow Rate [m3/s], 26.69637
 Component Sizing Information, AirTerminal:SingleDuct:Uncontrolled, DATACENTER_BOT_ZN_6 ZN PSZ-AC DATA CENTER DIFFUSER, Design Size Maximum Air Flow Rate [m3/s], 0.62904
 Component Sizing Information, AirTerminal:SingleDuct:Uncontrolled, DATACENTER_MID_ZN_6 ZN PSZ-AC DATA CENTER DIFFUSER, Design Size Maximum Air Flow Rate [m3/s], 5.49178
 Component Sizing Information, AirTerminal:SingleDuct:Uncontrolled, DATACENTER_TOP_ZN_6 ZN PSZ-AC DATA CENTER DIFFUSER, Design Size Maximum Air Flow Rate [m3/s], 0.56921
 Component Sizing Information, AirTerminal:SingleDuct:VAV:Reheat, PERIMETER_BOT_ZN_1 ZN VAV TERM, Design Size Maximum Air Flow Rate [m3/s], 2.04413
 Component Sizing Information, AirTerminal:SingleDuct:VAV:Reheat, PERIMETER_BOT_ZN_1 ZN VAV TERM, Design Size Constant Minimum Air Flow Fraction, 0.11684
 Component Sizing Information, AirTerminal:SingleDuct:VAV:Reheat, PERIMETER_BOT_ZN_1 ZN VAV TERM, User-Specified Constant Minimum Air Flow Fraction, 0.20000
 Component Sizing Information, AirTerminal:SingleDuct:VAV:Reheat, PERIMETER_BOT_ZN_1 ZN VAV TERM, Design Size Minimum Air Flow Rate [m3/s], 0.40883
 Component Sizing Information, AirTerminal:SingleDuct:VAV:Reheat, PERIMETER_BOT_ZN_1 ZN VAV TERM, Design Size Maximum Flow per Zone Floor Area during Reheat [m3/s-m2], 1.30440E-003
 Component Sizing Information, AirTerminal:SingleDuct:VAV:Reheat, PERIMETER_BOT_ZN_1 ZN VAV TERM, Design Size Maximum Flow Fraction during Reheat [], 0.20000
 Component Sizing Information, AirTerminal:SingleDuct:VAV:Reheat, PERIMETER_BOT_ZN_1 ZN VAV TERM, Design Size Maximum Reheat Water Flow Rate [m3/s], 4.34698E-004
 Component Sizing Information, AirTerminal:SingleDuct:VAV:Reheat, PERIMETER_BOT_ZN_1 ZN VAV TERM, Design Size Reheat Coil Sizing Air Volume Flow Rate [m3/s], 0.59834
 Component Sizing Information, AirTerminal:SingleDuct:VAV:Reheat, PERIMETER_BOT_ZN_1 ZN VAV TERM, Design Size Reheat Coil Sizing Inlet Air Temperature [C], 12.80000
 Component Sizing Information, AirTerminal:SingleDuct:VAV:Reheat, PERIMETER_BOT_ZN_1 ZN VAV TERM, Design Size Reheat Coil Sizing Inlet Air Humidity Ratio [kgWater/kgDryAir], 8.00000E-003
 Component Sizing Information, Coil:Heating:Water, PERIMETER_BOT_ZN_1 ZN RHT COIL, Design Size Rated Capacity [W], 20211.41434
 Component Sizing Information, Coil:Heating:Water, PERIMETER_BOT_ZN_1 ZN RHT COIL, Design Size Maximum Water Flow Rate [m3/s], 4.34698E-004
 Component Sizing Information, Coil:Heating:Water, PERIMETER_BOT_ZN_1 ZN RHT COIL, Design Size U-Factor Times Area Value [W/K], 412.73316
Water Heating Coil Capacity Information,Coil:Heating:Water,PERIMETER_BOT_ZN_1 ZN RHT COIL,17051.48
 Component Sizing Information, AirTerminal:SingleDuct:VAV:Reheat, PERIMETER_BOT_ZN_2 ZN VAV TERM, Design Size Maximum Air Flow Rate [m3/s], 1.70490
 Component Sizing Information, AirTerminal:SingleDuct:VAV:Reheat, PERIMETER_BOT_ZN_2 ZN VAV TERM, Design Size Constant Minimum Air Flow Fraction, 9.02721E-002
 Component Sizing Information, AirTerminal:SingleDuct:VAV:Reheat, PERIMETER_BOT_ZN_2 ZN VAV TERM, User-Specified Constant Minimum Air Flow Fraction, 0.20000
 Component Sizing Information, AirTerminal:SingleDuct:VAV:Reheat, PERIMETER_BOT_ZN_2 ZN VAV TERM, Design Size Minimum Air Flow Rate [m3/s], 0.34098
 Component Sizing Information, AirTerminal:SingleDuct:VAV:Reheat, PERIMETER_BOT_ZN_2 ZN VAV TERM, Design Size Maximum Flow per Zone Floor Area during Reheat [m3/s-m2], 1.68823E-003
 Component Sizing Information, AirTerminal:SingleDuct:VAV:Reheat, PERIMETER_BOT_ZN_2 ZN VAV TERM, Design Size Maximum Flow Fraction during Reheat [], 0.20000
 Component Sizing Information, AirTerminal:SingleDuct:VAV:Reheat, PERIMETER_BOT_ZN_2 ZN VAV TERM, Design Size Maximum Reheat Water Flow Rate [m3/s], 3.55672E-004
 Component Sizing Information, AirTerminal:SingleDuct:VAV:Reheat, PERIMETER_BOT_ZN_2 ZN VAV TERM, Design Size Reheat Coil Sizing Air Volume Flow Rate [m3/s], 0.48954
 Component Sizing Information, AirTerminal:SingleDuct:VAV:Reheat, PERIMETER_BOT_ZN_2 ZN VAV TERM, Design Size Reheat Coil Sizing Inlet Air Temperature [C], 12.80000
 Component Sizing Information, AirTerminal:SingleDuct:VAV:Reheat, PERIMETER_BOT_ZN_2 ZN VAV TERM, Design Size Reheat Coil Sizing Inlet Air Humidity Ratio [kgWater/kgDryAir], 8.00000E-003
 Component Sizing Information, Coil:Heating:Water, PERIMETER_BOT_ZN_2 ZN RHT COIL, Design Size Rated Capacity [W], 16537.06797
 Component Sizing Information, Coil:Heating:Water, PERIMETER_BOT_ZN_2 ZN RHT COIL, Design Size Maximum Water Flow Rate [m3/s], 3.55672E-004
 Component Sizing Information, Coil:Heating:Water, PERIMETER_BOT_ZN_2 ZN RHT COIL, Design Size U-Factor Times Area Value [W/K], 337.70526
Water Heating Coil Capacity Information,Coil:Heating:Water,PERIMETER_BOT_ZN_2 ZN RHT COIL,14033.53
 Component Sizing Information, AirTerminal:SingleDuct:VAV:Reheat, PERIMETER_BOT_ZN_3 ZN VAV TERM, Design Size Maximum Air Flow Rate [m3/s], 1.48143
 Component Sizing Information, AirTerminal:SingleDuct:VAV:Reheat, PERIMETER_BOT_ZN_3 ZN VAV TERM, Design Size Constant Minimum Air Flow Fraction, 0.16121
 Component Sizing Information, AirTerminal:SingleDuct:VAV:Reheat, PERIMETER_BOT_ZN_3 ZN VAV TERM, User-Specified Constant Minimum Air Flow Fraction, 0.21481
 Component Sizing Information, AirTerminal:SingleDuct:VAV:Reheat, PERIMETER_BOT_ZN_3 ZN VAV TERM, Design Size Minimum Air Flow Rate [m3/s], 0.31822
 Component Sizing Information, AirTerminal:SingleDuct:VAV:Reheat, PERIMETER_BOT_ZN_3 ZN VAV TERM, Design Size Maximum Flow per Zone Floor Area during Reheat [m3/s-m2], 1.01534E-003
 Component Sizing Information, AirTerminal:SingleDuct:VAV:Reheat, PERIMETER_BOT_ZN_3 ZN VAV TERM, Design Size Maximum Flow Fraction during Reheat [], 0.21481
 Component Sizing Information, AirTerminal:SingleDuct:VAV:Reheat, PERIMETER_BOT_ZN_3 ZN VAV TERM, Design Size Maximum Reheat Water Flow Rate [m3/s], 4.34103E-004
 Component Sizing Information, AirTerminal:SingleDuct:VAV:Reheat, PERIMETER_BOT_ZN_3 ZN VAV TERM, Design Size Reheat Coil Sizing Air Volume Flow Rate [m3/s], 0.59752
 Component Sizing Information, AirTerminal:SingleDuct:VAV:Reheat, PERIMETER_BOT_ZN_3 ZN VAV TERM, Design Size Reheat Coil Sizing Inlet Air Temperature [C], 12.80000
 Component Sizing Information, AirTerminal:SingleDuct:VAV:Reheat, PERIMETER_BOT_ZN_3 ZN VAV TERM, Design Size Reheat Coil Sizing Inlet Air Humidity Ratio [kgWater/kgDryAir], 8.00000E-003
 Component Sizing Information, Coil:Heating:Water, PERIMETER_BOT_ZN_3 ZN RHT COIL, Design Size Rated Capacity [W], 20183.73231
 Component Sizing Information, Coil:Heating:Water, PERIMETER_BOT_ZN_3 ZN RHT COIL, Design Size Maximum Water Flow Rate [m3/s], 4.34103E-004
 Component Sizing Information, Coil:Heating:Water, PERIMETER_BOT_ZN_3 ZN RHT COIL, Design Size U-Factor Times Area Value [W/K], 412.16782
Water Heating Coil Capacity Information,Coil:Heating:Water,PERIMETER_BOT_ZN_3 ZN RHT COIL,15618.10
 Component Sizing Information, AirTerminal:SingleDuct:VAV:Reheat, PERIMETER_BOT_ZN_4 ZN VAV TERM, Design Size Maximum Air Flow Rate [m3/s], 2.63855
 Component Sizing Information, AirTerminal:SingleDuct:VAV:Reheat, PERIMETER_BOT_ZN_4 ZN VAV TERM, Design Size Constant Minimum Air Flow Fraction, 5.83293E-002
 Component Sizing Information, AirTerminal:SingleDuct:VAV:Reheat, PERIMETER_BOT_ZN_4 ZN VAV TERM, User-Specified Constant Minimum Air Flow Fraction, 0.20000
 Component Sizing Information, AirTerminal:SingleDuct:VAV:Reheat, PERIMETER_BOT_ZN_4 ZN VAV TERM, Design Size Minimum Air Flow Rate [m3/s], 0.52771
 Component Sizing Information, AirTerminal:SingleDuct:VAV:Reheat, PERIMETER_BOT_ZN_4 ZN VAV TERM, Design Size Maximum Flow per Zone Floor Area during Reheat [m3/s-m2], 2.61275E-003
 Component Sizing Information, AirTerminal:SingleDuct:VAV:Reheat, PERIMETER_BOT_ZN_4 ZN VAV TERM, Design Size Maximum Flow Fraction during Reheat [], 0.20000
 Component Sizing Information, AirTerminal:SingleDuct:VAV:Reheat, PERIMETER_BOT_ZN_4 ZN VAV TERM, Design Size Maximum Reheat Water Flow Rate [m3/s], 1.57141E-004
 Component Sizing Information, AirTerminal:SingleDuct:VAV:Reheat, PERIMETER_BOT_ZN_4 ZN VAV TERM, Design Size Reheat Coil Sizing Air Volume Flow Rate [m3/s], 0.52771
 Component Sizing Information, AirTerminal:SingleDuct:VAV:Reheat, PERIMETER_BOT_ZN_4 ZN VAV TERM, Design Size Reheat Coil Sizing Inlet Air Temperature [C], 12.80000
 Component Sizing Information, AirTerminal:SingleDuct:VAV:Reheat, PERIMETER_BOT_ZN_4 ZN VAV TERM, Design Size Reheat Coil Sizing Inlet Air Humidity Ratio [kgWater/kgDryAir], 8.00000E-003
 Component Sizing Information, Coil:Heating:Water, PERIMETER_BOT_ZN_4 ZN RHT COIL, Design Size Rated Capacity [W], 7306.30942
 Component Sizing Information, Coil:Heating:Water, PERIMETER_BOT_ZN_4 ZN RHT COIL, Design Size Maximum Water Flow Rate [m3/s], 1.57141E-004
 Component Sizing Information, Coil:Heating:Water, PERIMETER_BOT_ZN_4 ZN RHT COIL, Design Size U-Factor Times Area Value [W/K], 129.59524
Water Heating Coil Capacity Information,Coil:Heating:Water,PERIMETER_BOT_ZN_4 ZN RHT COIL,6801.47
 Component Sizing Information, AirTerminal:SingleDuct:VAV:Reheat, PERIMETER_MID_ZN_1 ZN VAV TERM, Design Size Maximum Air Flow Rate [m3/s], 19.50983
 Component Sizing Information, AirTerminal:SingleDuct:VAV:Reheat, PERIMETER_MID_ZN_1 ZN VAV TERM, Design Size Constant Minimum Air Flow Fraction, 0.12241
 Component Sizing Information, AirTerminal:SingleDuct:VAV:Reheat, PERIMETER_MID_ZN_1 ZN VAV TERM, User-Specified Constant Minimum Air Flow Fraction, 0.20000
 Component Sizing Information, AirTerminal:SingleDuct:VAV:Reheat, PERIMETER_MID_ZN_1 ZN VAV TERM, Design Size Minimum Air Flow Rate [m3/s], 3.90197
 Component Sizing Information, AirTerminal:SingleDuct:VAV:Reheat, PERIMETER_MID_ZN_1 ZN VAV TERM, Design Size Maximum Flow per Zone Floor Area during Reheat [m3/s-m2], 1.24497E-003
 Component Sizing Information, AirTerminal:SingleDuct:VAV:Reheat, PERIMETER_MID_ZN_1 ZN VAV TERM, Design Size Maximum Flow Fraction during Reheat [], 0.20000
 Component Sizing Information, AirTerminal:SingleDuct:VAV:Reheat, PERIMETER_MID_ZN_1 ZN VAV TERM, Design Size Maximum Reheat Water Flow Rate [m3/s], 6.98736E-003
 Component Sizing Information, AirTerminal:SingleDuct:VAV:Reheat, PERIMETER_MID_ZN_1 ZN VAV TERM, Design Size Reheat Coil Sizing Air Volume Flow Rate [m3/s], 9.61908
 Component Sizing Information, AirTerminal:SingleDuct:VAV:Reheat, PERIMETER_MID_ZN_1 ZN VAV TERM, Design Size Reheat Coil Sizing Inlet Air Temperature [C], 12.80000
 Component Sizing Information, AirTerminal:SingleDuct:VAV:Reheat, PERIMETER_MID_ZN_1 ZN VAV TERM, Design Size Reheat Coil Sizing Inlet Air Humidity Ratio [kgWater/kgDryAir], 8.00000E-003
 Component Sizing Information, Coil:Heating:Water, PERIMETER_MID_ZN_1 ZN RHT COIL, Design Size Rated Capacity [W], 324879.11896
 Component Sizing Information, Coil:Heating:Water, PERIMETER_MID_ZN_1 ZN RHT COIL, Design Size Maximum Water Flow Rate [m3/s], 6.98736E-003
 Component Sizing Information, Coil:Heating:Water, PERIMETER_MID_ZN_1 ZN RHT COIL, Design Size U-Factor Times Area Value [W/K], 6634.00339
Water Heating Coil Capacity Information,Coil:Heating:Water,PERIMETER_MID_ZN_1 ZN RHT COIL,223142.25
 Component Sizing Information, AirTerminal:SingleDuct:VAV:Reheat, PERIMETER_MID_ZN_2 ZN VAV TERM, Design Size Maximum Air Flow Rate [m3/s], 19.25341
 Component Sizing Information, AirTerminal:SingleDuct:VAV:Reheat, PERIMETER_MID_ZN_2 ZN VAV TERM, Design Size Constant Minimum Air Flow Fraction, 7.99365E-002
[...]
 Component Sizing Information, AirLoopHVAC:UnitarySystem, DATACENTER_TOP_ZN_6 ZN UNITARY HP, Design Size Nominal Cooling Capacity [W], 10362.85275
 Component Sizing Information, AirLoopHVAC:UnitarySystem, DATACENTER_TOP_ZN_6 ZN UNITARY HP, Design Size Nominal Heating Capacity [W], 10362.85275
 Component Sizing Information, AirLoopHVAC:UnitarySystem, DATACENTER_TOP_ZN_6 ZN UNITARY HP, Design Size Maximum Supply Air Temperature [C], 40.00000
 Component Sizing Information, AirLoopHVAC:UnitarySystem, DATACENTER_TOP_ZN_6 ZN UNITARY HP, User-Specified Maximum Supply Air Temperature [C], 80.00000
 Component Sizing Information, AirLoopHVAC:UnitarySystem, DATACENTER_TOP_ZN_6 ZN UNITARY HP, Design Size Supplemental Heating Coil Nominal Capacity [W], 10362.85275
 Component Sizing Information, AirLoopHVAC:UnitarySystem, DATACENTER_TOP_ZN_6 ZN UNITARY HP, User-Specified Supplemental Heating Coil Nominal Capacity [W], 10362.85275
 Component Sizing Information, AirLoopHVAC:UnitarySystem, DATACENTER_TOP_ZN_6 ZN UNITARY HP, Fraction of Supply Air Flow That Goes Through the Controlling Zone, 1.00000
 Component Sizing Information, Fan:OnOff, DATACENTER_TOP_ZN_6 ZN PSZ-AC DATA CENTER FAN, Design Size Maximum Flow Rate [m3/s], 0.56921
 Component Sizing Information, COIL:HEATING:WATERTOAIRHEATPUMP:EQUATIONFIT, DATACENTER_TOP_ZN_6 ZN PSZ-AC DATA CENTER WATER-TO-AIR HP HTG COIL, Design Size Rated Air Flow Rate [m3/s], 0.56921
 Component Sizing Information, COIL:HEATING:WATERTOAIRHEATPUMP:EQUATIONFIT, DATACENTER_TOP_ZN_6 ZN PSZ-AC DATA CENTER WATER-TO-AIR HP HTG COIL, Design Size Rated Heating Capacity [W], 10362.85275
 Component Sizing Information, COIL:HEATING:WATERTOAIRHEATPUMP:EQUATIONFIT, DATACENTER_TOP_ZN_6 ZN PSZ-AC DATA CENTER WATER-TO-AIR HP HTG COIL, Design Size Rated Water Flow Rate [m3/s], 2.27067E-004
 Component Sizing Information, Coil:Heating:Electric, DATACENTER_TOP_ZN_6 ZN PSZ-AC DATA CENTER ELECTRIC BACKUP HTG COIL, Design Size Nominal Capacity [W], 10362.85275
 Component Sizing Information, Controller:OutdoorAir, VAV_BOT WITH REHEAT OA CONTROLLER, Maximum Outdoor Air Flow Rate [m3/s], 14.41318
 Component Sizing Information, Coil:Cooling:Water, VAV_BOT WITH REHEAT CLG COIL, Design Size Design Coil Load [W], 321237.15049
 Component Sizing Information, Coil:Cooling:Water, VAV_BOT WITH REHEAT CLG COIL, Design Size Design Water Flow Rate [m3/s], 1.36389E-002
 Component Sizing Information, Coil:Cooling:Water, VAV_BOT WITH REHEAT CLG COIL, Design Size Design Air Flow Rate [m3/s], 14.41318
 Component Sizing Information, Coil:Cooling:Water, VAV_BOT WITH REHEAT CLG COIL, Design Size Design Inlet Air Temperature [C], 25.83621
 Component Sizing Information, Coil:Cooling:Water, VAV_BOT WITH REHEAT CLG COIL, Design Size Design Inlet Water Temperature [C], 6.66667
 Component Sizing Information, Coil:Cooling:Water, VAV_BOT WITH REHEAT CLG COIL, Design Size Design Outlet Air Temperature [C], 12.80000
 Component Sizing Information, Coil:Cooling:Water, VAV_BOT WITH REHEAT CLG COIL, Design Size Design Inlet Air Humidity Ratio, 9.83522E-003
 Component Sizing Information, Coil:Cooling:Water, VAV_BOT WITH REHEAT CLG COIL, Design Size Design Outlet Air Humidity Ratio, 8.32074E-003
Water Cooling Coil Capacity Information,Coil:Cooling:Water,VAV_BOT WITH REHEAT CLG COIL,373907.34,255986.91,117920.43,0.68,40463.08,410.40
 Component Sizing Information, Coil:Heating:Water, VAV_BOT WITH REHEAT MAIN HTG COIL, Design Size Rated Capacity [W], 47418.99279
 Component Sizing Information, Coil:Heating:Water, VAV_BOT WITH REHEAT MAIN HTG COIL, Design Size Maximum Water Flow Rate [m3/s], 1.01987E-003
 Component Sizing Information, Coil:Heating:Water, VAV_BOT WITH REHEAT MAIN HTG COIL, Design Size U-Factor Times Area Value [W/K], 720.15978
Water Heating Coil Capacity Information,Coil:Heating:Water,VAV_BOT WITH REHEAT MAIN HTG COIL,39669.18
 Component Sizing Information, Fan:VariableVolume, VAV_BOT WITH REHEAT FAN, Design Size Maximum Flow Rate [m3/s], 14.41318
 Component Sizing Information, Controller:WaterCoil, VAV_BOT WITH REHEAT CLG COIL CONTROLLER, Maximum Actuated Flow [m3/s], 1.36389E-002
 Component Sizing Information, Controller:WaterCoil, VAV_BOT WITH REHEAT CLG COIL CONTROLLER, Controller Convergence Tolerance, 3.49142E-005
 Component Sizing Information, Controller:WaterCoil, VAV_BOT WITH REHEAT MAIN HTG COIL CONTROLLER, Maximum Actuated Flow [m3/s], 1.01987E-003
 Component Sizing Information, Controller:OutdoorAir, VAV_MID WITH REHEAT OA CONTROLLER, Maximum Outdoor Air Flow Rate [m3/s], 122.25502
 Component Sizing Information, Coil:Cooling:Water, VAV_MID WITH REHEAT CLG COIL, Design Size Design Coil Load [W], 2150100.55266
 Component Sizing Information, Coil:Cooling:Water, VAV_MID WITH REHEAT CLG COIL, Design Size Design Water Flow Rate [m3/s], 9.12876E-002
 Component Sizing Information, Coil:Cooling:Water, VAV_MID WITH REHEAT CLG COIL, Design Size Design Air Flow Rate [m3/s], 122.25502
 Component Sizing Information, Coil:Cooling:Water, VAV_MID WITH REHEAT CLG COIL, Design Size Design Inlet Air Temperature [C], 24.12980
 Component Sizing Information, Coil:Cooling:Water, VAV_MID WITH REHEAT CLG COIL, Design Size Design Inlet Water Temperature [C], 6.66667
 Component Sizing Information, Coil:Cooling:Water, VAV_MID WITH REHEAT CLG COIL, Design Size Design Outlet Air Temperature [C], 12.80000
 Component Sizing Information, Coil:Cooling:Water, VAV_MID WITH REHEAT CLG COIL, Design Size Design Inlet Air Humidity Ratio, 8.99585E-003
 Component Sizing Information, Coil:Cooling:Water, VAV_MID WITH REHEAT CLG COIL, Design Size Design Outlet Air Humidity Ratio, 8.32074E-003
Water Cooling Coil Capacity Information,Coil:Cooling:Water,VAV_MID WITH REHEAT CLG COIL,2867491.57,2032931.55,834560.02,0.71,315608.96,3201.08
 Component Sizing Information, Coil:Heating:Water, VAV_MID WITH REHEAT MAIN HTG COIL, Design Size Rated Capacity [W], 565096.29603
 Component Sizing Information, Coil:Heating:Water, VAV_MID WITH REHEAT MAIN HTG COIL, Design Size Maximum Water Flow Rate [m3/s], 1.21538E-002
 Component Sizing Information, Coil:Heating:Water, VAV_MID WITH REHEAT MAIN HTG COIL, Design Size U-Factor Times Area Value [W/K], 8408.03571
Water Heating Coil Capacity Information,Coil:Heating:Water,VAV_MID WITH REHEAT MAIN HTG COIL,451950.98
 Component Sizing Information, Fan:VariableVolume, VAV_MID WITH REHEAT FAN, Design Size Maximum Flow Rate [m3/s], 122.25502
 Component Sizing Information, Controller:WaterCoil, VAV_MID WITH REHEAT CLG COIL CONTROLLER, Maximum Actuated Flow [m3/s], 9.12876E-002
 Component Sizing Information, Controller:WaterCoil, VAV_MID WITH REHEAT CLG COIL CONTROLLER, Controller Convergence Tolerance, 5.21638E-006
 Component Sizing Information, Controller:WaterCoil, VAV_MID WITH REHEAT MAIN HTG COIL CONTROLLER, Maximum Actuated Flow [m3/s], 1.21538E-002
 Component Sizing Information, Controller:OutdoorAir, VAV_TOP WITH REHEAT OA CONTROLLER, Maximum Outdoor Air Flow Rate [m3/s], 13.76773
 Component Sizing Information, Coil:Cooling:Water, VAV_TOP WITH REHEAT CLG COIL, Design Size Design Coil Load [W], 309643.60375
 Component Sizing Information, Coil:Cooling:Water, VAV_TOP WITH REHEAT CLG COIL, Design Size Design Water Flow Rate [m3/s], 1.31467E-002
 Component Sizing Information, Coil:Cooling:Water, VAV_TOP WITH REHEAT CLG COIL, Design Size Design Air Flow Rate [m3/s], 13.76773
 Component Sizing Information, Coil:Cooling:Water, VAV_TOP WITH REHEAT CLG COIL, Design Size Design Inlet Air Temperature [C], 25.80020
 Component Sizing Information, Coil:Cooling:Water, VAV_TOP WITH REHEAT CLG COIL, Design Size Design Inlet Water Temperature [C], 6.66667
 Component Sizing Information, Coil:Cooling:Water, VAV_TOP WITH REHEAT CLG COIL, Design Size Design Outlet Air Temperature [C], 12.80000
 Component Sizing Information, Coil:Cooling:Water, VAV_TOP WITH REHEAT CLG COIL, Design Size Design Inlet Air Humidity Ratio, 9.91609E-003
 Component Sizing Information, Coil:Cooling:Water, VAV_TOP WITH REHEAT CLG COIL, Design Size Design Outlet Air Humidity Ratio, 8.32074E-003
Water Cooling Coil Capacity Information,Coil:Cooling:Water,VAV_TOP WITH REHEAT CLG COIL,358617.61,245204.43,113413.18,0.68,38831.42,393.85
 Component Sizing Information, Coil:Heating:Water, VAV_TOP WITH REHEAT MAIN HTG COIL, Design Size Rated Capacity [W], 50034.15283
 Component Sizing Information, Coil:Heating:Water, VAV_TOP WITH REHEAT MAIN HTG COIL, Design Size Maximum Water Flow Rate [m3/s], 1.07611E-003
 Component Sizing Information, Coil:Heating:Water, VAV_TOP WITH REHEAT MAIN HTG COIL, Design Size U-Factor Times Area Value [W/K], 757.38332
Water Heating Coil Capacity Information,Coil:Heating:Water,VAV_TOP WITH REHEAT MAIN HTG COIL,41346.96
 Component Sizing Information, Fan:VariableVolume, VAV_TOP WITH REHEAT FAN, Design Size Maximum Flow Rate [m3/s], 13.76773
 Component Sizing Information, Controller:WaterCoil, VAV_TOP WITH REHEAT CLG COIL CONTROLLER, Maximum Actuated Flow [m3/s], 1.31467E-002
 Component Sizing Information, Controller:WaterCoil, VAV_TOP WITH REHEAT CLG COIL CONTROLLER, Controller Convergence Tolerance, 3.62214E-005
 Component Sizing Information, Controller:WaterCoil, VAV_TOP WITH REHEAT MAIN HTG COIL CONTROLLER, Maximum Actuated Flow [m3/s], 1.07611E-003
Water Heater Information,WaterHeater:Mixed,300.0GAL NATURAL GAS WATER HEATER - 300KBTU/HR 0.806 THERM EFF,1.1356,87921.3,0.000,0.0000
 Component Sizing Information, Pump:VariableSpeed, CHILLED WATER LOOP SECONDARY PUMP, Design Flow Rate [m3/s], 0.12324
 Component Sizing Information, Pump:VariableSpeed, CHILLED WATER LOOP SECONDARY PUMP, Design Power Consumption [W], 22705.50631
 Component Sizing Information, PlantLoop, CHILLED WATER LOOP, Maximum Loop Flow Rate [m3/s], 0.12324
 Component Sizing Information, PlantLoop, CHILLED WATER LOOP, Plant Loop Volume [m3], 14.78886
 Component Sizing Information, Pump:ConstantSpeed, CHILLED WATER LOOP PRIMARY PUMP, Design Flow Rate [m3/s], 0.12324
 Component Sizing Information, Pump:ConstantSpeed, CHILLED WATER LOOP PRIMARY PUMP, Design Power Consumption [W], 7725.31948
 Component Sizing Information, Chiller:Electric:EIR, 90.1-2010 WATERCOOLED  CENTRIFUGAL CHILLER 0 736TONS 0.6KW/TON, Design Size Reference Chilled Water Flow Rate [m3/s], 0.12324
 Component Sizing Information, Chiller:Electric:EIR, 90.1-2010 WATERCOOLED  CENTRIFUGAL CHILLER 0 736TONS 0.6KW/TON, Design Size Reference Capacity [W], 2902640.50195
 Component Sizing Information, Chiller:Electric:EIR, 90.1-2010 WATERCOOLED  CENTRIFUGAL CHILLER 0 736TONS 0.6KW/TON, Design Size Reference Condenser Fluid Flow Rate [m3/s], 0.14527
! <Chiller Standard Rating Information>, Component Type, Component Name, IPLV in SI Units {W/W}, IPLV in IP Units {Btu/W-h}
 Chiller Standard Rating Information, Chiller:Electric:EIR, 90.1-2010 WATERCOOLED  CENTRIFUGAL CHILLER 0 736TONS 0.6KW/TON, 9.51, 32.44
 Component Sizing Information, PlantLoop, CONDENSER WATER LOOP, Maximum Loop Flow Rate [m3/s], 0.14527
 Component Sizing Information, PlantLoop, CONDENSER WATER LOOP, Plant Loop Volume [m3], 17.43200
 Component Sizing Information, Pump:ConstantSpeed, CONDENSER WATER LOOP PUMP, Design Flow Rate [m3/s], 0.14527
 Component Sizing Information, Pump:ConstantSpeed, CONDENSER WATER LOOP PUMP, Design Power Consumption [W], 29401.79497
 Component Sizing Information, CoolingTower:SingleSpeed, CENTRIFUGAL FAN CYCLING OPEN COOLING TOWER 38.2 GPM/HP, Design Water Flow Rate [m3/s], 0.14527
 Component Sizing Information, CoolingTower:SingleSpeed, CENTRIFUGAL FAN CYCLING OPEN COOLING TOWER 38.2 GPM/HP, Design Air Flow Rate [m3/s], 102.75738
 Component Sizing Information, CoolingTower:SingleSpeed, CENTRIFUGAL FAN CYCLING OPEN COOLING TOWER 38.2 GPM/HP, U-Factor Times Area Value at Design Air Flow Rate [W/C], 193493.02070
 Component Sizing Information, CoolingTower:SingleSpeed, CENTRIFUGAL FAN CYCLING OPEN COOLING TOWER 38.2 GPM/HP, Free Convection Regime Air Flow Rate [m3/s], 10.27574
 Component Sizing Information, CoolingTower:SingleSpeed, CENTRIFUGAL FAN CYCLING OPEN COOLING TOWER 38.2 GPM/HP, Free Convection U-Factor Times Area Value [W/K], 19349.30207
 Component Sizing Information, PlantLoop, HEAT PUMP LOOP, Maximum Loop Flow Rate [m3/s], 1.33183E-002
 Component Sizing Information, PlantLoop, HEAT PUMP LOOP, Plant Loop Volume [m3], 1.59820
 Component Sizing Information, Pump:ConstantSpeed, HEAT PUMP LOOP PUMP, Design Flow Rate [m3/s], 1.33183E-002
 Component Sizing Information, Pump:ConstantSpeed, HEAT PUMP LOOP PUMP, Design Power Consumption [W], 3421.51636
 Component Sizing Information, CoolingTower:TwoSpeed, HEAT PUMP LOOP CENTRAL TOWER 20.0 GPM/HP, Design Water Flow Rate [m3/s], 1.33183E-002
 Component Sizing Information, CoolingTower:TwoSpeed, HEAT PUMP LOOP CENTRAL TOWER 20.0 GPM/HP, Air Flow Rate at High Fan Speed [m3/s], 14.11841
 Component Sizing Information, CoolingTower:TwoSpeed, HEAT PUMP LOOP CENTRAL TOWER 20.0 GPM/HP, U-Factor Times Area Value at High Fan Speed [W/C], 8269.29024
 Component Sizing Information, CoolingTower:TwoSpeed, HEAT PUMP LOOP CENTRAL TOWER 20.0 GPM/HP, Low Fan Speed Air Flow Rate [m3/s], 7.05920
 Component Sizing Information, CoolingTower:TwoSpeed, HEAT PUMP LOOP CENTRAL TOWER 20.0 GPM/HP, U-Factor Times Area Value at Low Fan Speed [W/K], 4961.57414
 Component Sizing Information, Boiler:HotWater, HEAT PUMP LOOP SUP BOILER 1409KBTU/HR 0.8 THERMAL EFF, Design Size Nominal Capacity [W], 612313.78483
 Component Sizing Information, Boiler:HotWater, HEAT PUMP LOOP SUP BOILER 1409KBTU/HR 0.8 THERMAL EFF, Design Size Design Water Flow Rate [m3/s], 1.33183E-002
 Component Sizing Information, PlantLoop, HOT WATER LOOP, Maximum Loop Flow Rate [m3/s], 7.92923E-002
 Component Sizing Information, PlantLoop, HOT WATER LOOP, Plant Loop Volume [m3], 9.51508
 Component Sizing Information, Pump:VariableSpeed, HOT WATER LOOP PUMP, Design Flow Rate [m3/s], 7.92923E-002
 Component Sizing Information, Pump:VariableSpeed, HOT WATER LOOP PUMP, Design Power Consumption [W], 19603.81035
 Component Sizing Information, Boiler:HotWater, HOT WATER LOOP BOILER 8806KBTU/HR 0.8 THERMAL EFF, Design Size Nominal Capacity [W], 3701105.67366
 Component Sizing Information, Boiler:HotWater, HOT WATER LOOP BOILER 8806KBTU/HR 0.8 THERMAL EFF, Design Size Design Water Flow Rate [m3/s], 7.92923E-002
 Component Sizing Information, PlantLoop, MAIN SERVICE WATER LOOP, Maximum Loop Flow Rate [m3/s], 4.39108E-004
 Component Sizing Information, PlantLoop, MAIN SERVICE WATER LOOP, Plant Loop Volume [m3], 5.26929E-002
 Component Sizing Information, Pump:ConstantSpeed, SERVICE WATER LOOP PUMP, Design Flow Rate [m3/s], 4.39108E-004
 Component Sizing Information, Pump:ConstantSpeed, SERVICE WATER LOOP PUMP, Design Power Consumption [W], 19.68117
 Component Sizing Information, WaterHeater:Mixed, 300.0GAL NATURAL GAS WATER HEATER - 300KBTU/HR 0.806 THERM EFF, Use Side Design Flow Rate [m3/s], 4.39108E-004
 Component Sizing Information, PlantEquipmentOperation:ComponentSetPoint, HEAT PUMP LOOP SETPOINT OPERATION SCHEME, Design Water Flow Rate [m3/s] Equipment # 45, 4.39108E-004
 Component Sizing Information, PlantEquipmentOperation:ComponentSetPoint, HEAT PUMP LOOP SETPOINT OPERATION SCHEME, Design Water Flow Rate [m3/s] Equipment # 45, 4.39108E-004
! <Environment>,Environment Name,Environment Type, Start Date, End Date, Start DayOfWeek, Duration {#days}, Source:Start DayOfWeek,  Use Daylight Saving, Use Holidays, Apply Weekend Holiday Rule,  Use Rain Values, Use Snow Values
! <Environment:Special Days>, Special Day Name, Special Day Type, Source, Start Date, Duration {#days}
! <Environment:Daylight Saving>, Daylight Saving Indicator, Source, Start Date, End Date
! <Environment:WarmupDays>, NumberofWarmupDays
Environment,RUN PERIOD 1,WeatherFileRunPeriod,08/01,08/14,Monday,14,Use RunPeriod Specified Day,No,No,No,Yes,Yes
Environment:Daylight Saving,No,RunPeriod Object
Environment:WarmupDays,  6
! <Tabular Report>,Style,Unit Conversion
Tabular Report,HTML,None
! <Warmup Convergence Information>,Zone Name,Environment Type/Name,Average Warmup Temperature Difference {deltaC},Std Dev Warmup Temperature Difference {deltaC},Max Temperature Pass/Fail Convergence,Min Temperature Pass/Fail Convergence,Average Warmup Load Difference {W},Std Dev Warmup Load Difference {W},Heating Load Pass/Fail Convergence,Cooling Load Pass/Fail Convergence
 Warmup Convergence Information,BASEMENT ZN,RunPeriod: RUN PERIOD 1,8.3466696562E-002,0.3767224027,Pass,Pass,9.6078560442E-002,0.1288451068,Pass,Pass
 Warmup Convergence Information,CORE_BOTTOM ZN,RunPeriod: RUN PERIOD 1,8.9270194768E-002,0.3736098777,Pass,Pass,6.9829022417E-002,0.1083430365,Pass,Pass
 Warmup Convergence Information,CORE_MID ZN,RunPeriod: RUN PERIOD 1,9.2957718217E-002,0.3717516902,Pass,Pass,9.7648853278E-002,0.1410018354,Pass,Pass
 Warmup Convergence Information,CORE_TOP ZN,RunPeriod: RUN PERIOD 1,8.3702364177E-002,0.3831865455,Pass,Pass,9.4400636555E-002,0.1332899030,Pass,Pass
 Warmup Convergence Information,DATACENTER_BASEMENT_ZN_6 ZN,RunPeriod: RUN PERIOD 1,2.8199664825E-013,1.4102309071E-013,Pass,Pass,1.2020790912E-003,1.0920787644E-003,Pass,Pass
 Warmup Convergence Information,DATACENTER_BOT_ZN_6 ZN,RunPeriod: RUN PERIOD 1,4.1976190137E-006,1.1691809455E-005,Pass,Pass,1.1289637478E-002,8.3962609088E-003,Pass,Pass
 Warmup Convergence Information,DATACENTER_MID_ZN_6 ZN,RunPeriod: RUN PERIOD 1,3.3039414967E-006,9.2139144999E-006,Pass,Pass,1.3171226966E-002,9.5205247267E-003,Pass,Pass
 Warmup Convergence Information,DATACENTER_TOP_ZN_6 ZN,RunPeriod: RUN PERIOD 1,3.7652482838E-006,1.0476800401E-005,Pass,Pass,1.4158035465E-002,9.4913570938E-003,Pass,Pass
 Warmup Convergence Information,GROUNDFLOOR_PLENUM ZN,RunPeriod: RUN PERIOD 1,9.5866520799E-002,0.2520108845,Pass,Pass,7.2097445101E-002,0.1448286677,Pass,Pass
 Warmup Convergence Information,MIDFLOOR_PLENUM ZN,RunPeriod: RUN PERIOD 1,0.1021712595,0.2385114902,Pass,Pass,9.3262096463E-002,0.1591506299,Pass,Pass
 Warmup Convergence Information,PERIMETER_BOT_ZN_1 ZN,RunPeriod: RUN PERIOD 1,8.3578492008E-002,0.3818114206,Pass,Pass,0.1127468263,9.3840795024E-002,Pass,Pass
 Warmup Convergence Information,PERIMETER_BOT_ZN_2 ZN,RunPeriod: RUN PERIOD 1,8.3647550390E-002,0.3837397222,Pass,Pass,0.1482580700,0.1336457106,Pass,Pass
 Warmup Convergence Information,PERIMETER_BOT_ZN_3 ZN,RunPeriod: RUN PERIOD 1,8.5256662174E-002,0.3818437131,Pass,Pass,9.2678727880E-002,9.5653427031E-002,Pass,Pass
 Warmup Convergence Information,PERIMETER_BOT_ZN_4 ZN,RunPeriod: RUN PERIOD 1,8.3635510080E-002,0.3723581650,Pass,Pass,7.7496897798E-002,7.3190630803E-002,Pass,Pass
 Warmup Convergence Information,PERIMETER_MID_ZN_1 ZN,RunPeriod: RUN PERIOD 1,8.3665278674E-002,0.3834560685,Pass,Pass,0.1447269976,0.1132377400,Pass,Pass
 Warmup Convergence Information,PERIMETER_MID_ZN_2 ZN,RunPeriod: RUN PERIOD 1,8.3664644620E-002,0.3829176439,Pass,Pass,0.1623358579,0.1415109179,Pass,Pass
 Warmup Convergence Information,PERIMETER_MID_ZN_3 ZN,RunPeriod: RUN PERIOD 1,8.8307533706E-002,0.3827938796,Pass,Pass,0.1218784239,0.1162460522,Pass,Pass
 Warmup Convergence Information,PERIMETER_MID_ZN_4 ZN,RunPeriod: RUN PERIOD 1,8.3781097669E-002,0.3817317796,Pass,Pass,0.1436046104,0.1292868866,Pass,Pass
 Warmup Convergence Information,PERIMETER_TOP_ZN_1 ZN,RunPeriod: RUN PERIOD 1,8.5559776450E-002,0.3834489178,Pass,Pass,0.1416111990,0.1060520837,Pass,Pass
 Warmup Convergence Information,PERIMETER_TOP_ZN_2 ZN,RunPeriod: RUN PERIOD 1,8.3711757853E-002,0.3833222003,Pass,Pass,0.1577476324,0.1366994135,Pass,Pass
 Warmup Convergence Information,PERIMETER_TOP_ZN_3 ZN,RunPeriod: RUN PERIOD 1,8.8557745713E-002,0.3824588436,Pass,Pass,0.1187039874,0.1106428155,Pass,Pass
 Warmup Convergence Information,PERIMETER_TOP_ZN_4 ZN,RunPeriod: RUN PERIOD 1,8.3669365230E-002,0.3815330601,Pass,Pass,0.1400236843,0.1223035754,Pass,Pass
 Warmup Convergence Information,TOPFLOOR_PLENUM ZN,RunPeriod: RUN PERIOD 1,0.1674080186,0.2339565059,Pass,Pass,0.1641188969,0.1502404091,Pass,Pass
